[TITLE]
asa_norte_se Apr-2017        

[JUNCTIONS]
;ID              	Elev        	Demand      	Pattern         
 100001          	1063.1279   	0.24945704327565585	UDA.ASN.001     	;
 100002          	1034.9678   	0.480552100308642	UDA.ASN.001     	;
 100003          	1066.8167   	0           	                	;
 100004          	1070.0000   	0           	                	;
 100005          	1031.7164   	0           	                	;
 100006          	1029.2719   	0           	                	;
 100007          	1030.3533   	0           	                	;
 100010          	1044.0797   	0.4006300271990741	UDA.ASN.001     	;
 100011          	1041.6248   	0.4006300271990741	UDA.ASN.001     	;
 100012          	1039.5513   	0.1203686629050926	UDA.ASN.001     	;
 100013          	1042.0356   	0.1203686629050926	UDA.ASN.001     	;
 100014          	1050.9200   	0           	                	;
 100015          	1048.4779   	0.0         	UDA.ASN.001     	;
 100016          	1040.6102   	0.10800647590663581	UDA.ASN.001     	;
 100017          	1039.9751   	0.034785038368055556	UDA.ASN.001     	;
 100018          	1055.2034   	0.3285496400462963	UDA.ASN.001     	;
 100019          	1055.6827   	0.6026444774305555	UDA.ASN.001     	;
 100020          	1082.7131   	0.2734521414974923	UDA.ASN.001     	;
 100021          	1084.0663   	0.27345214149749225	UDA.ASN.001     	;
 100022          	1005.2903   	0           	                	;
 100045          	1035.1132   	0           	                	;
 100046          	1066.4017   	0.23005918897395836	UDA.ASN.001     	;
 100053          	1005.5942   	0           	                	;
 100080          	1049.4241   	0           	                	;
 100081          	1049.4692   	0           	                	;
 100082          	1104.8969   	0.03894578872685185	UDA.ASN.001     	;
 100083          	1104.8969   	0.2500952621277006	UDA.ASN.001     	;
 100084          	1092.2455   	0           	                	;
 100085          	1092.2455   	0           	                	;
 100086          	1109.0341   	0.2075078237037037	UDA.ASN.001     	;
 100087          	1108.8091   	0.016251468925540125	UDA.ASN.001     	;
 100088          	1093.3611   	0           	                	;
 100089          	1093.0880   	0.22849696852816362	UDA.ASN.001     	;
 100090          	1094.7512   	0.2546435722851081	UDA.ASN.001     	;
 100091          	1091.2242   	0.28336404994714515	UDA.ASN.001     	;
 100092          	1049.5392   	0           	                	;
 100093          	1049.5392   	0.3469345376386961	UDA.ASN.001     	;
 100094          	1104.3623   	0           	                	;
 100095          	1104.1490   	0           	                	;
 100096          	1028.2922   	0.03146937144675926	UDA.ASN.001     	;
 100097          	1028.2922   	0.022821005067515433	UDA.ASN.001     	;
 100098          	1095.6304   	1.478299242783179	UDA.ASN.001     	;
 100099          	1095.2795   	1.4782992427831791	UDA.ASN.001     	;
 100100          	1032.6870   	0.013231327407407407	UDA.ASN.001     	;
 100101          	1032.5094   	0.05714962332947529	UDA.ASN.001     	;
 100102          	1087.1249   	0.00890990304205247	UDA.ASN.001     	;
 100103          	1033.3535   	0.13158979964756945	UDA.ASN.001     	;
 100104          	1034.1132   	0.029812972577160493	UDA.ASN.001     	;
 100105          	1096.6093   	0.2116284054783951	UDA.ASN.001     	;
 100106          	1096.7775   	0           	                	;
 100107          	1096.0404   	0           	                	;
 100108          	1096.2916   	0           	                	;
 100109          	1102.5811   	0           	                	;
 100110          	1103.1227   	0           	                	;
 100111          	1091.2539   	0.08509100864641203	UDA.ASN.001     	;
 100112          	1093.2335   	0.08509100864641203	UDA.ASN.001     	;
 100113          	1090.2314   	0           	                	;
 100114          	1090.7893   	0           	                	;
 100115          	1088.8872   	0.1535248906510417	UDA.ASN.001     	;
 100116          	1089.7317   	0.066977222107446	UDA.ASN.001     	;
 100117          	1086.9021   	0           	                	;
 100118          	1087.5438   	0           	                	;
 100119          	1088.6864   	1.5114501737195216	UDA.ASN.001     	;
 100120          	1076.1830   	0           	                	;
 100121          	1075.8167   	0           	                	;
 100122          	1076.2867   	0           	                	;
 100123          	1077.9330   	0.0         	UDA.ASN.001     	;
 100124          	1079.1028   	0.0         	UDA.ASN.001     	;
 100125          	1077.6904   	0           	                	;
 100126          	1077.9551   	1.6842144515842976	UDA.ASN.001     	;
 100127          	1077.8530   	0           	                	;
 100129          	1055.3336   	0           	                	;
 100130          	1070.0000   	0.4063110009645061	UDA.ASN.001     	;
 100131          	1070.0000   	0           	                	;
 100132          	1032.0337   	0.08211368409143519	UDA.ASN.001     	;
 100133          	1031.9801   	0.02052124807677469	UDA.ASN.001     	;
 100134          	1007.0550   	0           	                	;
 100135          	1007.2049   	0           	                	;
 100136          	1008.5553   	0           	                	;
 100137          	1005.7504   	0.25008422685185183	UDA.ASN.001     	;
 100138          	1055.4448   	0.5171646268298611	UDA.ASN.001     	;
 100139          	1066.6888   	0           	                	;
 100140          	1063.1384   	0           	                	;
 100141          	1052.1533   	0           	                	;
 100142          	1052.1533   	0           	                	;
 100143          	1050.6567   	0.07186188828703703	UDA.ASN.001     	;
 100144          	1050.8488   	0           	                	;
 100145          	1030.0389   	0.025418715217978394	UDA.ASN.001     	;
 100146          	1005.0000   	0           	                	;
 100147          	1044.9512   	0           	                	;
 100148          	1045.1915   	0           	                	;
 100149          	1101.2756   	0           	                	;
 100150          	1101.5151   	0           	                	;
 100152          	1058.6421   	0           	                	;
 100153          	1058.8467   	0           	                	;
 100155          	1069.7738   	0.5792092999841821	UDA.ASN.001     	;
 100156          	1070.0000   	0.5984400272150849	UDA.ASN.001     	;
 100157          	1005.0000   	0           	                	;
 100160          	1005.0000   	0           	                	;
 100161          	1032.2555   	0           	                	;
 100162          	1032.2725   	0.033891620285493834	UDA.ASN.001     	;
 100163          	1005.0000   	0           	                	;
 100164          	1005.0000   	0           	                	;
 100165          	1027.6398   	0.011264836543209877	UDA.ASN.001     	;
 100166          	1029.0598   	0.011264836543209877	UDA.ASN.001     	;
 100167          	1031.3800   	0.09351844828028551	UDA.ASN.001     	;
 100168          	1032.3123   	0.09426884883005401	UDA.ASN.001     	;
 100169          	1010.1137   	0           	                	;
 100171          	1010.9923   	0           	                	;
 100172          	1029.3092   	0.15246241174826392	UDA.ASN.001     	;
 100173          	1029.4840   	0.00286476446566358	UDA.ASN.001     	;
 100174          	1030.2454   	0           	                	;
 100175          	1025.0000   	0           	                	;
 100176          	1022.0357   	0           	                	;
 100177          	1038.9281   	0.002282100507330247	UDA.ASN.001     	;
 100178          	1038.8802   	0           	                	;
 100179          	1100.0000   	0           	                	;
 100180          	1079.0157   	0           	                	;
 100181          	1079.3634   	0           	                	;
 100182          	1022.1953   	0           	                	;
 100183          	1023.8827   	0           	                	;
 100184          	1080.5199   	0           	                	;
 100185          	1061.7080   	0           	                	;
 100186          	1061.5525   	0.4081803809799382	UDA.ASN.001     	;
 100187          	1059.9030   	0.22216627838445216	UDA.ASN.001     	;
 100188          	1057.6586   	0.2490865304068287	UDA.ASN.001     	;
 100189          	1053.5975   	0.24908653040682874	UDA.ASN.001     	;
 100190          	1053.3142   	0.8398372640470679	UDA.ASN.001     	;
 100191          	1053.4683   	0.5873009930208333	UDA.ASN.001     	;
 100192          	1109.2288   	0.006943412179783951	UDA.ASN.001     	;
 100194          	1108.5992   	0.13714452939178243	UDA.ASN.001     	;
 100195          	1091.5721   	0           	                	;
 100196          	1077.4073   	0           	                	;
 100197          	1077.4767   	2.296622964699074	UDA.ASN.001     	;
 100198          	1085.0000   	1.002594730169753	UDA.ASN.001     	;
 100199          	1075.5309   	0           	                	;
 100200          	1074.9504   	0           	                	;
 100201          	1099.8813   	0.08667479522318675	UDA.ASN.001     	;
 100202          	1104.2810   	0.16438381724556325	UDA.ASN.001     	;
 100203          	1070.0000   	0.26931191675192906	UDA.ASN.001     	;
 100204          	1109.6599   	0           	                	;
 100205          	1109.7208   	0.1401350963097994	UDA.ASN.001     	;
 100206          	1085.8055   	3.3168631423611115	UDA.ASN.001     	;
 100207          	1108.7535   	0.04582740321277006	UDA.ASN.001     	;
 100208          	1050.4908   	0.24595702372685183	UDA.ASN.001     	;
 100209          	1111.8362   	0.3533221279185957	UDA.ASN.001     	;
 100210          	1112.0284   	0.08483587245968363	UDA.ASN.001     	;
 100211          	1060.8726   	0.09349328779320988	UDA.ASN.001     	;
 100212          	1061.8951   	0.03401300861689815	UDA.ASN.001     	;
 100213          	1111.6498   	0           	                	;
 100214          	1111.7159   	0           	                	;
 100215          	1015.0000   	0           	                	;
 100216          	1016.2898   	0           	                	;
 100217          	1111.8151   	0.13864974461998456	UDA.ASN.001     	;
 100218          	1045.8431   	0           	                	;
 100219          	1045.2882   	0.12531027124402006	UDA.ASN.001     	;
 100220          	1041.9215   	0.160353094265625	UDA.ASN.001     	;
 100221          	1106.4152   	0.004491368018904321	UDA.ASN.001     	;
 100222          	1107.4487   	0.03374595430478396	UDA.ASN.001     	;
 100223          	1046.0927   	0.1420945245771605	UDA.ASN.001     	;
 100224          	1042.0928   	0.20321641529108797	UDA.ASN.001     	;
 100226          	1040.7224   	0.8264382001215278	UDA.ASN.001     	;
 100227          	1040.3763   	0           	                	;
 100228          	1040.2423   	0.7517821732253086	UDA.ASN.001     	;
 100229          	1030.0000   	1.1065128472299384	UDA.ASN.001     	;
 100230          	1030.0000   	0           	                	;
 100231          	1081.9425   	0.11332803496161266	UDA.ASN.001     	;
 100232          	1083.2177   	0.4376641653125	UDA.ASN.001     	;
 100233          	1062.2688   	0           	                	;
 100234          	1074.2020   	0.06831072803761574	UDA.ASN.001     	;
 100235          	1111.9602   	0.002257822841435185	UDA.ASN.001     	;
 100238          	1110.0000   	0.002257822841435185	UDA.ASN.001     	;
 100239          	1109.4266   	0           	                	;
 100243          	1062.1409   	0.061883767997685184	UDA.ASN.001     	;
 100244          	1091.5302   	0           	                	;
 100245          	1033.3042   	0           	                	;
 100247          	1033.2588   	0           	                	;
 100249          	1033.2588   	0.0         	UDA.ASN.001     	;
 100250          	1070.6198   	0           	                	;
 100251          	1100.0000   	0           	                	;
 100252          	1100.0000   	0.03281854750077161	UDA.ASN.001     	;
 100253          	1062.4122   	0.2714971273148148	UDA.ASN.001     	;
 100254          	1120.9208   	0           	                	;
 100257          	1125.0000   	0           	                	;
 100258          	1082.0714   	0.2021115607638889	UDA.ASN.001     	;
 100259          	1106.1694   	0.6076942318267747	UDA.ASN.001     	;
 100260          	1107.3026   	0.6076942318267747	UDA.ASN.001     	;
 100261          	1071.0511   	0           	                	;
 100262          	1071.7889   	0           	                	;
 100263          	1038.9624   	0           	                	;
 100264          	1038.7065   	0           	                	;
 100265          	1064.7728   	0           	                	;
 100266          	1050.6559   	0.1960906999228395	UDA.ASN.001     	;
 100267          	1050.7893   	0           	                	;
 100268          	1093.0106   	0.052998142611882716	UDA.ASN.001     	;
 100269          	1049.9663   	0.3356629958217593	UDA.ASN.001     	;
 100272          	1048.2649   	0           	                	;
 100273          	1048.2957   	0           	                	;
 100274          	1058.0747   	0.17213350013580245	UDA.ASN.001     	;
 100275          	1056.4937   	0           	                	;
 100276          	1016.8001   	0           	                	;
 100277          	1072.8169   	0           	                	;
 100278          	1074.0425   	0           	                	;
 100279          	1073.9833   	0           	                	;
 100280          	1074.9139   	0           	                	;
 100281          	1063.0648   	0.1244473106095679	UDA.ASN.001     	;
 100282          	1062.6465   	0.1244473106095679	UDA.ASN.001     	;
 100283          	1083.7034   	0.0         	UDA.ASN.001     	;
 100284          	1084.9515   	0.0         	UDA.ASN.001     	;
 100285          	1065.0112   	0           	                	;
 100286          	1064.5070   	0.10434540403510802	UDA.ASN.001     	;
 100287          	1063.5699   	0.2057429635285494	UDA.ASN.001     	;
 100288          	1054.0940   	0           	                	;
 100321          	1047.8975   	0.3187701551292438	UDA.ASN.001     	;
 100322          	1055.7985   	0           	                	;
 100323          	1055.6674   	0           	                	;
 100324          	1055.0000   	2.6597395852932095	UDA.ASN.001     	;
 100325          	1055.6595   	0.23452224357638887	UDA.ASN.001     	;
 100326          	1063.5442   	0.290749315625	UDA.ASN.001     	;
 100327          	1064.9949   	0.2562507537037037	UDA.ASN.001     	;
 100329          	1065.8774   	0.06562252839506172	UDA.ASN.001     	;
 100330          	1060.6215   	0           	                	;
 100331          	1058.5143   	0           	                	;
 100332          	1059.0248   	0           	                	;
 100333          	1054.6431   	0           	                	;
 100334          	1064.3668   	1.0395245269295912	UDA.ASN.001     	;
 100335          	1064.7452   	1.0395245269295912	UDA.ASN.001     	;
 100336          	1017.0776   	0.3322323409587191	UDA.ASN.001     	;
 100337          	1064.2959   	0           	                	;
 100338          	1038.6881   	0           	                	;
 100339          	1080.0000   	0           	                	;
 100340          	1065.0000   	0           	                	;
 100341          	1038.4271   	0           	                	;
 100342          	1059.1560   	0           	                	;
 100343          	1059.1678   	0.4270198490933642	UDA.ASN.001     	;
 100344          	1090.0000   	0           	                	;
 100345          	1063.1724   	0           	                	;
 100346          	1063.1724   	0           	                	;
 100347          	1107.7460   	0.06740450900655866	UDA.ASN.001     	;
 100348          	1058.1490   	0           	                	;
 100349          	1059.3544   	0           	                	;
 100350          	1049.8430   	0           	                	;
 100351          	1049.9923   	0           	                	;
 100352          	1049.7452   	0           	                	;
 100353          	1057.4456   	0           	                	;
 100354          	1057.6700   	0           	                	;
 100355          	1060.2657   	0           	                	;
 100356          	1069.3571   	0           	                	;
 100357          	1067.1875   	0           	                	;
 100358          	1109.9114   	0.06984684210648148	UDA.ASN.001     	;
 100360          	1056.8818   	0.061883767997685184	UDA.ASN.001     	;
 100361          	1080.0000   	1.3203165314648921	UDA.ASN.001     	;
 100362          	1083.7915   	0           	                	;
 100363          	1090.7190   	0           	                	;
 100364          	1090.8588   	1.5114501737195218	UDA.ASN.001     	;
 100365          	1090.0000   	0.052998142611882716	UDA.ASN.001     	;
 100366          	1075.0000   	0.01854813603395062	UDA.ASN.001     	;
 100367          	1075.0000   	0.08761809286265432	UDA.ASN.001     	;
 100368          	1043.6014   	0.07524553267881945	UDA.ASN.001     	;
 100369          	1087.2174   	0.41551812134162813	UDA.ASN.001     	;
 100370          	1087.6143   	0.4155181213416281	UDA.ASN.001     	;
 100371          	1046.6259   	0.10848143530092594	UDA.ASN.001     	;
 100372          	1104.4829   	0           	                	;
 100373          	1104.6006   	0.051857092361111114	UDA.ASN.001     	;
 100374          	1095.0000   	0           	                	;
 100375          	1105.2325   	0           	                	;
 100376          	1105.5829   	0.1738983707781636	UDA.ASN.001     	;
 100377          	1098.5183   	0           	                	;
 100378          	1099.9738   	2.1863549873057493	UDA.ASN.001     	;
 100379          	1101.8199   	0           	                	;
 100380          	1101.5472   	0           	                	;
 100381          	1012.7989   	0           	                	;
 100382          	1012.9779   	3.0179565316358024	UDA.ASN.001     	;
 100383          	1108.4972   	0           	                	;
 100384          	1103.0333   	0           	                	;
 100385          	1075.0000   	0           	                	;
 100386          	1075.0000   	0           	                	;
 100387          	1034.0858   	0           	                	;
 100388          	1034.0452   	0.08523270192245369	UDA.ASN.001     	;
 100389          	1037.7213   	0           	                	;
 100390          	1071.4764   	0           	                	;
 100391          	1037.3162   	0           	                	;
 100392          	1037.2146   	0           	                	;
 100393          	1068.0468   	0.5984400272150849	UDA.ASN.001     	;
 100394          	1066.6353   	0           	                	;
 100395          	1045.0000   	0           	                	;
 100396          	1062.0383   	0.24576280246913582	UDA.ASN.001     	;
 100397          	1061.7736   	0           	                	;
 100399          	1055.6232   	0.27559567011342584	UDA.ASN.001     	;
 100401          	1035.5116   	0.4742156298746142	UDA.ASN.001     	;
 100402          	1073.9740   	0           	                	;
 100404          	1074.0488   	0           	                	;
 100405          	1057.8739   	0           	                	;
 100406          	1071.0756   	0           	                	;
 100414          	1097.7684   	0           	                	;
 100415          	1097.7684   	0           	                	;
 100416          	1025.0000   	0.05326519693287037	UDA.ASN.001     	;
 100417          	1019.7275   	0.05326519693287037	UDA.ASN.001     	;
 100418          	1018.9940   	0           	                	;
 100419          	1015.4067   	0.32973483140432097	UDA.ASN.001     	;
 100420          	1040.0000   	0.2807469176311729	UDA.ASN.001     	;
 100421          	1039.9939   	0.31966401455632715	UDA.ASN.001     	;
 100422          	1095.0000   	0           	                	;
 100423          	1040.2477   	0           	                	;
 100424          	1032.2289   	0.0         	UDA.ASN.001     	;
 100425          	1031.3029   	0.2014605410704089	UDA.ASN.001     	;
 100426          	1095.0000   	0.4349586456404321	UDA.ASN.001     	;
 100427          	1071.0190   	0.9635805225694445	UDA.ASN.001     	;
 100428          	1049.4775   	0           	                	;
 100429          	1048.6290   	0           	                	;
 100430          	1046.6390   	0           	                	;
 100431          	1083.7231   	0           	                	;
 100432          	1084.2404   	0           	                	;
 100433          	1082.1064   	0.4845093597608025	UDA.ASN.001     	;
 100434          	1082.3748   	0           	                	;
 100435          	1088.1731   	0.6064648991010803	UDA.ASN.001     	;
 100436          	1087.5703   	0           	                	;
 100437          	1087.3429   	0           	                	;
 100438          	1040.1772   	0           	                	;
 100439          	1040.0304   	0           	                	;
 100440          	1094.9474   	0           	                	;
 100441          	1094.9474   	0           	                	;
 100442          	1062.5063   	0.10019782244753088	UDA.ASN.001     	;
 100443          	1013.6416   	0           	                	;
 100444          	1012.2358   	0           	                	;
 100445          	1069.0693   	0.5315594743441359	UDA.ASN.001     	;
 100446          	1067.9320   	0           	                	;
 100447          	1027.5132   	0           	                	;
 100448          	1027.1963   	0           	                	;
 100449          	1012.2282   	0           	                	;
 100450          	1051.0502   	0.08669554158950617	UDA.ASN.001     	;
 100451          	1051.0092   	0.08669554158950617	UDA.ASN.001     	;
 100452          	1058.5143   	0.12124265883487656	UDA.ASN.001     	;
 100453          	1056.8495   	0.12124265883487656	UDA.ASN.001     	;
 100454          	1058.6272   	0.0         	UDA.ASN.001     	;
 100455          	1057.3741   	0.0         	UDA.ASN.001     	;
 100456          	1063.0455   	0.13233269621103397	UDA.ASN.001     	;
 100457          	1068.8831   	0.13233269621103397	UDA.ASN.001     	;
 100458          	1073.9802   	0.8919371332810571	UDA.ASN.001     	;
 100459          	1066.3395   	0.8919371332810571	UDA.ASN.001     	;
 100460          	1057.2603   	0.9759864092798998	UDA.ASN.001     	;
 100461          	1086.2617   	0           	                	;
 100462          	1085.4497   	0           	                	;
 100463          	1095.5400   	0           	                	;
 100464          	1095.0000   	0           	                	;
 100465          	1096.3984   	0.21247812371913577	UDA.ASN.001     	;
 100466          	1037.1602   	0.018353914714506175	UDA.ASN.001     	;
 100467          	1037.2400   	0           	                	;
 100468          	1110.0000   	0.01619761665316358	UDA.ASN.001     	;
 100469          	1106.7960   	0.11114315022376542	UDA.ASN.001     	;
 100470          	1062.6835   	0           	                	;
 100471          	1104.3348   	0           	                	;
 100472          	1062.5911   	0           	                	;
 100473          	1063.7723   	0           	                	;
 100474          	1100.0000   	0           	                	;
 100475          	1100.0000   	0           	                	;
 100476          	1092.7325   	0           	                	;
 100477          	1103.4482   	0.22736033236882716	UDA.ASN.001     	;
 100478          	1103.2906   	0           	                	;
 100479          	1104.1610   	0           	                	;
 100480          	1111.1244   	0           	                	;
 100481          	1110.0964   	0           	                	;
 100482          	1095.5022   	0.2426971955189043	UDA.ASN.001     	;
 100483          	1100.0000   	0.2426971955189043	UDA.ASN.001     	;
 100486          	1080.0000   	0           	                	;
 100487          	1067.4562   	0.11947038929398147	UDA.ASN.001     	;
 100488          	1067.9257   	0           	                	;
 100489          	1011.9042   	0.06678542855381944	UDA.ASN.001     	;
 100491          	1011.3407   	2.211549612844329	UDA.ASN.001     	;
 100492          	1065.2314   	0.11019632127700618	UDA.ASN.001     	;
 100493          	1065.2990   	0           	                	;
 100494          	1026.3878   	0.14685449184895832	UDA.ASN.001     	;
 100495          	1026.1256   	0.14188538983140433	UDA.ASN.001     	;
 100496          	1056.6986   	0.09269212484567901	UDA.ASN.001     	;
 100497          	1057.2275   	0.09269212484567901	UDA.ASN.001     	;
 100498          	1024.8807   	0.0449203013599537	UDA.ASN.001     	;
 100499          	1024.8300   	0           	                	;
 100500          	1083.7386   	0.8524373722993827	UDA.ASN.001     	;
 100501          	1081.4150   	0.5796049733796296	UDA.ASN.001     	;
 100502          	1059.5581   	0.27361369820794756	UDA.ASN.001     	;
 100503          	1058.9852   	0           	                	;
 100504          	1076.1136   	0           	                	;
 100505          	1075.7463   	0           	                	;
 100506          	1063.2106   	0.27361369820794756	UDA.ASN.001     	;
 100507          	1062.8629   	0           	                	;
 100508          	1089.3925   	0           	                	;
 100509          	1088.9344   	0           	                	;
 100510          	1070.0000   	0           	                	;
 100511          	1095.6223   	0.16166497101080246	UDA.ASN.001     	;
 100512          	1095.9615   	0.1473654263464506	UDA.ASN.001     	;
 100513          	1040.4041   	0.34148963549382716	UDA.ASN.001     	;
 100514          	1041.7192   	0.34148963549382716	UDA.ASN.001     	;
 100515          	1096.8334   	0.2552995106685957	UDA.ASN.001     	;
 100516          	1046.5717   	0.07021100707561728	UDA.ASN.001     	;
 100517          	1075.8456   	0.23646445679012348	UDA.ASN.001     	;
 100518          	1047.3495   	0           	                	;
 100519          	1046.9410   	0.10371418474151237	UDA.ASN.001     	;
 100520          	1048.6857   	0.021267234510030864	UDA.ASN.001     	;
 100521          	1048.8750   	0.29805689276620373	UDA.ASN.001     	;
 100522          	1019.8761   	0           	                	;
 100531          	1025.0000   	0.06159243601466049	UDA.ASN.001     	;
 100532          	1079.7245   	0.23975562532677472	UDA.ASN.001     	;
 100533          	1079.9316   	0.023160892380401234	UDA.ASN.001     	;
 100534          	1015.0000   	0           	                	;
 100535          	1085.2719   	0.15444236569232253	UDA.ASN.001     	;
 100536          	1084.4771   	0.15444236569232253	UDA.ASN.001     	;
 100537          	1015.0000   	0.25632358680555556	UDA.ASN.001     	;
 100538          	1015.0000   	0.25632358680555556	UDA.ASN.001     	;
 100539          	1049.4233   	0           	                	;
 100540          	1048.2813   	0           	                	;
 100541          	1022.7568   	0.1566152166859568	UDA.ASN.001     	;
 100542          	1022.6516   	0           	                	;
 100543          	1048.8582   	0           	                	;
 100544          	1036.6891   	9.71106598572531E-4	UDA.ASN.001     	;
 100545          	1042.9998   	0.0         	UDA.ASN.001     	;
 100546          	1043.2800   	1.1021088786477624	UDA.ASN.001     	;
 100547          	1035.6420   	0           	                	;
 100548          	1035.9019   	0           	                	;
 100549          	1042.3748   	0           	                	;
 100550          	1050.0313   	0.0         	UDA.ASN.001     	;
 100551          	1039.0002   	0.41672611919367286	UDA.ASN.001     	;
 100552          	1036.6000   	0.24352925733024694	UDA.ASN.001     	;
 100553          	1051.3582   	0.5611782256809413	UDA.ASN.001     	;
 100554          	1052.2419   	0.11614434918981484	UDA.ASN.001     	;
 100555          	1045.8689   	0.29502947854668216	UDA.ASN.001     	;
 100556          	1045.9166   	0.3649155221749614	UDA.ASN.001     	;
 100557          	1045.8530   	0.11279403142361111	UDA.ASN.001     	;
 100558          	1045.0000   	0.11279403142361111	UDA.ASN.001     	;
 100559          	1063.3531   	0.8049571750538199	UDA.ASN.001     	;
 100560          	1070.0000   	0           	                	;
 100561          	1052.6989   	0.0076717421296296304	UDA.ASN.001     	;
 100562          	1043.5938   	1.2760490784085647	UDA.ASN.001     	;
 100563          	1043.8597   	1.2760490784085647	UDA.ASN.001     	;
 100564          	1067.0077   	0.15124985273823302	UDA.ASN.001     	;
 100565          	1067.6071   	0.03136674313271605	UDA.ASN.001     	;
 100566          	1055.8710   	0           	                	;
 100567          	1057.4528   	0           	                	;
 100568          	1080.3998   	0.1651973712638889	UDA.ASN.001     	;
 100569          	1080.6768   	0           	                	;
 100570          	1042.5339   	0           	                	;
 100571          	1041.1516   	0           	                	;
 100572          	1024.6405   	0.13313871467978394	UDA.ASN.001     	;
 100574          	1024.7946   	0           	                	;
 100575          	1031.9768   	0.46489300636574077	UDA.ASN.001     	;
 100576          	1032.7266   	0           	                	;
 100577          	1028.8256   	0.19081015015644293	UDA.ASN.001     	;
 100578          	1008.9170   	0.8094901828703703	UDA.ASN.001     	;
 100579          	1009.5858   	0.8094901828703703	UDA.ASN.001     	;
 100580          	1033.3376   	0.6993424168595679	UDA.ASN.001     	;
 100581          	1035.2264   	0.3602805480324074	UDA.ASN.001     	;
 100582          	1036.4063   	0           	                	;