[TITLE]

[JUNCTIONS]
 J10                                 940.0000  ;New Junction
 J100                                945.8204  ;New Junction
 J1000                               918.9454  ;New Junction
 J1002                               924.3962  ;New Junction
 J1004                               928.5193  ;New Junction
 J1006                               928.5859  ;New Junction
 J1008                               954.0541  ;New Junction
 J1010                               948.2633  ;New Junction
 J1012                               948.2633  ;New Junction
 J1014                               931.1163  ;New Junction
 J1016                               930.8776  ;New Junction
 J1018                               930.1907  ;New Junction
 J102                                934.9692  ;New Junction
 J1020                               929.5490  ;New Junction
 J1022                               927.7013  ;New Junction
 J1024                               928.6705  ;New Junction
 J1026                               928.6705  ;New Junction
 J1028                               928.6705  ;New Junction
 J1030                               954.5937  ;New Junction
 J1032                               954.1752  ;New Junction
 J1034                               929.8254  ;New Junction
 J1036                               931.1145  ;New Junction
 J1038                               939.2073  ;New Junction
 J104                                934.3477  ;New Junction
 J1040                               929.8295  ;New Junction
 J1042                               930.2272  ;New Junction
 J1044                               931.2374  ;New Junction
 J1046                               931.4898  ;New Junction
 J1048                               931.8286  ;New Junction
 J1050                               932.0550  ;New Junction
 J1052                               932.8810  ;New Junction
 J1054                               933.6108  ;New Junction
 J1056                               933.8680  ;New Junction
 J1058                               934.6123  ;New Junction
 J106                                913.1029  ;New Junction
 J1060                               937.6664  ;New Junction
 RAP.VAM.001.FIT.001.000.000         954.0541  ;RAP.VAM.001.FIT.001.000.000
 J1064                               950.8958  ;New Junction
 J108                                913.1029  ;New Junction
 J1088                               939.2762  ;New Junction
 J1098                               934.4604  ;New Junction
 J110                                911.8768  ;New Junction
 J1100                               934.0779  ;New Junction
 J112                                911.8768  ;New Junction
 J114                                918.1564  ;New Junction
 J116                                916.6386  ;New Junction
 J118                                940.0000  ;New Junction
 J12                                 940.0000  ;New Junction
 J120                                940.0000  ;New Junction
 J122                                939.9568  ;New Junction
 J124                                939.7567  ;New Junction
 J126                                939.2762  ;New Junction
 J128                                938.6319  ;New Junction
 J130                                938.7489  ;New Junction
 J132                                930.5646  ;New Junction
 J134                                929.4706  ;New Junction
 J136                                913.7086  ;New Junction
 J14                                 947.3506  ;New Junction
 J146                                937.8858  ;New Junction
 J148                                936.2167  ;New Junction
 J150                                933.2083  ;New Junction
 J152                                932.0745  ;New Junction
 J154                                934.5017  ;New Junction
 J156                                938.5395  ;New Junction
 J158                                938.3018  ;New Junction
 J16                                 951.1202  ;New Junction
 J160                                938.0386  ;New Junction
 J162                                937.1691  ;New Junction
 J164                                936.8283  ;New Junction
 J166                                935.9177  ;New Junction
 J168                                934.7487  ;New Junction
 J170                                934.4604  ;New Junction
 J172                                915.1181  ;New Junction
 J174                                925.6398  ;New Junction
 J176                                923.4965  ;New Junction
 J178                                935.4398  ;New Junction
 J18                                 962.3215  ;New Junction
 J180                                933.6354  ;New Junction
 J182                                936.8132  ;New Junction
 J184                                935.4296  ;New Junction
 J186                                939.2858  ;New Junction
 J188                                924.0000  ;New Junction
 J190                                923.7425  ;New Junction
 J192                                934.9203  ;New Junction
 J194                                935.0000  ;New Junction
 J196                                926.3545  ;New Junction
 J198                                926.3545  ;New Junction
 J20                                 936.1924  ;New Junction
 J200                                927.9578  ;New Junction
 J202                                942.5248  ;New Junction
 J204                                944.9292  ;New Junction
 J206                                943.8928  ;New Junction
 J208                                942.0280  ;New Junction
 J210                                908.5377  ;New Junction
 J212                                908.5656  ;New Junction
 J214                                912.2819  ;New Junction
 J216                                908.5377  ;New Junction
 J218                                909.5446  ;New Junction
 J22                                 933.0000  ;New Junction
 J220                                910.6538  ;New Junction
 J222                                911.8768  ;New Junction
 J224                                925.0394  ;New Junction
 J226                                925.0394  ;New Junction
 J228                                925.0394  ;New Junction
 J230                                925.0394  ;New Junction
 J232                                925.3403  ;New Junction
 J234                                925.2667  ;New Junction
 J236                                925.2667  ;New Junction
 J238                                925.2667  ;New Junction
 J24                                 924.2092  ;New Junction
 J240                                925.1617  ;New Junction
 J242                                925.1617  ;New Junction
 J244                                925.1617  ;New Junction
 J246                                925.1617  ;New Junction
 J248                                925.0146  ;New Junction
 J250                                934.9203  ;New Junction
 J252                                934.9203  ;New Junction
 J254                                933.9542  ;New Junction
 J256                                935.0000  ;New Junction
 J258                                933.9542  ;New Junction
 J26                                 922.0000  ;New Junction
 J260                                934.0000  ;New Junction
 J262                                940.6812  ;New Junction
 J264                                938.5278  ;New Junction
 J266                                950.1755  ;New Junction
 J268                                937.6432  ;New Junction
 J270                                936.1918  ;New Junction
 J272                                933.7740  ;New Junction
 J274                                933.0000  ;New Junction
 J276                                933.1722  ;New Junction
 J278                                946.4600  ;New Junction
 J28                                 921.7810  ;New Junction
 J280                                924.0000  ;New Junction
 J282                                919.7751  ;New Junction
 J284                                919.1898  ;New Junction
 J286                                929.2776  ;New Junction
 J288                                928.8105  ;New Junction
 J290                                924.5841  ;New Junction
 J292                                925.0146  ;New Junction
 J294                                927.0000  ;New Junction
 J296                                927.1046  ;New Junction
 J298                                933.6354  ;New Junction
 J30                                 918.5749  ;New Junction
 J300                                934.3477  ;New Junction
 J302                                934.3477  ;New Junction
 J304                                933.6354  ;New Junction
 J306                                939.3978  ;New Junction
 J308                                939.3978  ;New Junction
 J310                                930.9987  ;New Junction
 J312                                930.9987  ;New Junction
 J314                                927.5114  ;New Junction
 J316                                925.9835  ;New Junction
 J318                                926.3967  ;New Junction
 J32                                 918.2986  ;New Junction
 J320                                925.2880  ;New Junction
 J322                                912.2819  ;New Junction
 J324                                912.2819  ;New Junction
 J326                                913.3132  ;New Junction
 J328                                913.3132  ;New Junction
 J330                                913.4245  ;New Junction
 J332                                912.9641  ;New Junction
 J334                                920.2769  ;New Junction
 J336                                919.3816  ;New Junction
 J338                                922.7708  ;New Junction
 J34                                 918.9454  ;New Junction
 J340                                922.7708  ;New Junction
 J342                                924.6124  ;New Junction
 J344                                925.5811  ;New Junction
 J346                                930.0598  ;New Junction
 J348                                929.9960  ;New Junction
 J350                                928.2048  ;New Junction
 J352                                928.2048  ;New Junction
 J354                                932.7621  ;New Junction
 J356                                932.7621  ;New Junction
 J358                                938.1635  ;New Junction
 J36                                 918.5749  ;New Junction
 J360                                937.3286  ;New Junction
 J362                                937.8183  ;New Junction
 J364                                941.9591  ;New Junction
 J366                                942.8124  ;New Junction
 J368                                942.5020  ;New Junction
 J370                                942.9342  ;New Junction
 J372                                942.3539  ;New Junction
 J374                                942.3539  ;New Junction
 J376                                939.5728  ;New Junction
 J378                                938.1766  ;New Junction
 J38                                 917.6702  ;New Junction
 J380                                941.4452  ;New Junction
 J382                                941.4452  ;New Junction
 J384                                937.6671  ;New Junction
 J386                                933.6005  ;New Junction
 J388                                935.0694  ;New Junction
 J390                                936.2167  ;New Junction
 J392                                935.6456  ;New Junction
 J394                                936.2167  ;New Junction
 J396                                943.5040  ;New Junction
 J398                                942.2058  ;New Junction
 J40                                 940.0366  ;New Junction
 J400                                945.3850  ;New Junction
 J402                                942.6973  ;New Junction
 J404                                938.9084  ;New Junction
 J406                                939.7939  ;New Junction
 J408                                942.8793  ;New Junction
 J410                                943.9691  ;New Junction
 J412                                945.1815  ;New Junction
 J414                                946.0000  ;New Junction
 J416                                946.0000  ;New Junction
 J418                                922.4954  ;New Junction
 J42                                 937.8824  ;New Junction
 J420                                924.4204  ;New Junction
 J422                                928.2048  ;New Junction
 J424                                928.6152  ;New Junction
 J426                                929.4521  ;New Junction
 J428                                930.3621  ;New Junction
 J430                                932.0419  ;New Junction
 J432                                934.1852  ;New Junction
 J434                                936.4444  ;New Junction
 J436                                938.9148  ;New Junction
 J438                                940.8108  ;New Junction
 J44                                 936.2491  ;New Junction
 J440                                913.4245  ;New Junction
 J442                                913.4245  ;New Junction
 J444                                914.6425  ;New Junction
 J446                                916.6211  ;New Junction
 J448                                923.2927  ;New Junction
 J450                                920.2769  ;New Junction
 J452                                924.6504  ;New Junction
 J454                                925.7919  ;New Junction
 J456                                932.4341  ;New Junction
 J458                                931.2974  ;New Junction
 J46                                 935.9068  ;New Junction
 J460                                937.2747  ;New Junction
 J462                                924.4728  ;New Junction
 J464                                927.3035  ;New Junction
 J466                                923.4965  ;New Junction
 J468                                923.4965  ;New Junction
 J470                                930.6355  ;New Junction
 J472                                928.9152  ;New Junction
 J474                                934.0226  ;New Junction
 J476                                930.7979  ;New Junction
 J478                                930.6118  ;New Junction
 J48                                 945.0416  ;New Junction
 J480                                934.2025  ;New Junction
 J482                                934.5017  ;New Junction
 J484                                934.5017  ;New Junction
 J486                                934.2025  ;New Junction
 J488                                931.9411  ;New Junction
 J490                                929.4589  ;New Junction
 J492                                928.0673  ;New Junction
 J494                                928.0673  ;New Junction
 J496                                947.2252  ;New Junction
 J498                                946.8024  ;New Junction
 J50                                 946.2251  ;New Junction
 J500                                947.0000  ;New Junction
 J502                                946.0000  ;New Junction
 J504                                945.3647  ;New Junction
 J506                                930.8077  ;New Junction
 J508                                932.0000  ;New Junction
 J510                                960.0751  ;New Junction
 J512                                962.7612  ;New Junction
 J514                                948.1991  ;New Junction
 J516                                946.4600  ;New Junction
 J518                                941.7225  ;New Junction
 J52                                 944.1504  ;New Junction
 J520                                947.4760  ;New Junction
 J522                                942.7615  ;New Junction
 J524                                934.1631  ;New Junction
 J526                                934.3657  ;New Junction
 J528                                934.8513  ;New Junction
 J530                                930.1505  ;New Junction
 J532                                930.0322  ;New Junction
 J534                                930.4141  ;New Junction
 J536                                929.0836  ;New Junction
 J538                                930.4141  ;New Junction
 J54                                 946.7142  ;New Junction
 J540                                931.6323  ;New Junction
 J542                                932.1290  ;New Junction
 J544                                932.0569  ;New Junction
 J546                                931.5456  ;New Junction
 J548                                930.4606  ;New Junction
 J550                                929.8140  ;New Junction
 J552                                931.0495  ;New Junction
 J554                                923.7530  ;New Junction
 J556                                923.1844  ;New Junction
 J558                                923.0405  ;New Junction
 J56                                 952.5051  ;New Junction
 J560                                926.3493  ;New Junction
 J562                                930.6995  ;New Junction
 J564                                929.0000  ;New Junction
 J566                                933.9506  ;New Junction
 J568                                932.0000  ;New Junction
 J570                                938.8770  ;New Junction
 J572                                934.4232  ;New Junction
 J574                                937.3303  ;New Junction
 J576                                934.0842  ;New Junction
 J578                                934.4604  ;New Junction
 J58                                 941.5787  ;New Junction
 J580                                933.2845  ;New Junction
 J582                                932.5416  ;New Junction
 J584                                940.5575  ;New Junction
 J586                                934.7464  ;New Junction
 J588                                935.0961  ;New Junction
 J590                                935.0000  ;New Junction
 J592                                934.3417  ;New Junction
 J594                                934.0000  ;New Junction
 J596                                937.9530  ;New Junction
 J598                                939.3650  ;New Junction
 J60                                 941.5787  ;New Junction
 J600                                939.3800  ;New Junction
 J602                                938.5395  ;New Junction
 J604                                934.7464  ;New Junction
 J606                                939.0000  ;New Junction
 J608                                948.2633  ;New Junction
 J610                                948.5195  ;New Junction
 J612                                947.9471  ;New Junction
 J614                                947.9471  ;New Junction
 J616                                950.9857  ;New Junction
 J618                                949.4388  ;New Junction
 J62                                 940.0366  ;New Junction
 J620                                949.7439  ;New Junction
 J622                                939.6585  ;New Junction
 J624                                939.6705  ;New Junction
 J626                                933.6011  ;New Junction
 J628                                946.7834  ;New Junction
 J630                                944.6212  ;New Junction
 J632                                943.7491  ;New Junction
 J634                                943.2349  ;New Junction
 J636                                942.0341  ;New Junction
 J638                                941.2797  ;New Junction
 J64                                 937.8666  ;New Junction
 J640                                940.9457  ;New Junction
 J642                                940.4023  ;New Junction
 J644                                940.0000  ;New Junction
 J646                                953.5148  ;New Junction
 J648                                950.8958  ;New Junction
 J650                                946.9038  ;New Junction
 J652                                947.3506  ;New Junction
 J654                                939.4598  ;New Junction
 J656                                939.7699  ;New Junction
 J658                                932.7480  ;New Junction
 J66                                 934.0616  ;New Junction
 J660                                932.7722  ;New Junction
 J662                                932.7722  ;New Junction
 J664                                932.8990  ;New Junction
 J666                                932.6707  ;New Junction
 J668                                932.1100  ;New Junction
 J670                                931.5550  ;New Junction
 J672                                932.7722  ;New Junction
 J674                                929.6138  ;New Junction
 J676                                931.5980  ;New Junction
 J678                                933.8432  ;New Junction
 J68                                 931.3503  ;New Junction
 J680                                933.4357  ;New Junction
 J682                                933.0000  ;New Junction
 J684                                932.7903  ;New Junction
 J686                                960.9196  ;New Junction
 J688                                958.9355  ;New Junction
 J690                                957.2654  ;New Junction
 J692                                948.9900  ;New Junction
 J694                                949.4899  ;New Junction
 J696                                953.8871  ;New Junction
 J698                                955.7634  ;New Junction
 J70                                 935.1752  ;New Junction
 J700                                949.1676  ;New Junction
 J702                                936.9211  ;New Junction
 J704                                947.3079  ;New Junction
 J706                                947.1255  ;New Junction
 J708                                938.3070  ;New Junction
 J710                                934.6740  ;New Junction
 J712                                932.3259  ;New Junction
 J714                                920.5283  ;New Junction
 J716                                919.7751  ;New Junction
 J718                                923.2716  ;New Junction
 J72                                 937.8152  ;New Junction
 J720                                920.2306  ;New Junction
 J722                                920.3131  ;New Junction
 J724                                919.5991  ;New Junction
 J726                                920.2708  ;New Junction
 J728                                922.2870  ;New Junction
 J730                                923.7969  ;New Junction
 J732                                923.7648  ;New Junction
 J734                                923.9551  ;New Junction
 J736                                925.0908  ;New Junction
 J738                                928.2130  ;New Junction
 J74                                 934.8265  ;New Junction
 J740                                926.8174  ;New Junction
 J742                                925.7899  ;New Junction
 J744                                924.4842  ;New Junction
 J746                                923.9343  ;New Junction
 J748                                933.4226  ;New Junction
 J750                                931.2405  ;New Junction
 J752                                931.0832  ;New Junction
 J754                                931.3180  ;New Junction
 J756                                932.8472  ;New Junction
 J758                                932.4317  ;New Junction
 J76                                 935.1376  ;New Junction
 J760                                934.1642  ;New Junction
 J762                                932.5175  ;New Junction
 J764                                934.3843  ;New Junction
 J766                                930.4969  ;New Junction
 J768                                930.4583  ;New Junction
 J770                                930.0919  ;New Junction
 J772                                929.2021  ;New Junction
 J774                                926.6915  ;New Junction
 J776                                927.5569  ;New Junction
 J778                                929.0000  ;New Junction
 J78                                 937.7912  ;New Junction
 J780                                926.7062  ;New Junction
 J782                                922.7670  ;New Junction
 J784                                921.7741  ;New Junction
 J786                                928.5859  ;New Junction
 J788                                926.8226  ;New Junction
 J790                                928.4415  ;New Junction
 J792                                928.6377  ;New Junction
 J794                                927.1938  ;New Junction
 J796                                924.3943  ;New Junction
 J798                                926.4330  ;New Junction
 J80                                 937.7912  ;New Junction
 J800                                924.5976  ;New Junction
 J802                                924.5649  ;New Junction
 J804                                928.5193  ;New Junction
 J806                                928.5859  ;New Junction
 J808                                929.5057  ;New Junction
 J810                                929.2592  ;New Junction
 J812                                929.5423  ;New Junction
 J814                                925.3495  ;New Junction
 J816                                925.6729  ;New Junction
 J818                                923.4897  ;New Junction
 J82                                 939.6328  ;New Junction
 J820                                921.1791  ;New Junction
 J822                                918.8854  ;New Junction
 J824                                920.0000  ;New Junction
 J826                                918.6826  ;New Junction
 J828                                918.6826  ;New Junction
 J830                                917.1018  ;New Junction
 J832                                917.1018  ;New Junction
 J834                                935.9068  ;New Junction
 J836                                936.2938  ;New Junction
 J838                                933.4316  ;New Junction
 J84                                 938.7852  ;New Junction
 J840                                944.1504  ;New Junction
 J842                                939.6572  ;New Junction
 J844                                940.0000  ;New Junction
 J846                                939.6174  ;New Junction
 J848                                939.5275  ;New Junction
 J850                                955.0000  ;New Junction
 J854                                954.6481  ;New Junction
 J856                                955.0000  ;New Junction
 J858                                954.6481  ;New Junction
 J86                                 947.5004  ;New Junction
 RAP.VAM.001.FIT.002.000.000         954.0541  ;RAP.VAM.001.FIT.002.000.000
 J864                                954.0541  ;New Junction
 J866                                954.0541  ;New Junction
 J868                                955.9824  ;New Junction
 J870                                955.9824  ;New Junction
 J872                                939.2073  ;New Junction
 J874                                931.0189  ;New Junction
 J876                                930.6721  ;New Junction
 J878                                931.1145  ;New Junction
 J88                                 950.2740  ;New Junction
 J880                                931.1145  ;New Junction
 J884                                935.2249  ;New Junction
 J886                                937.8661  ;New Junction
 J888                                938.7244  ;New Junction
 J890                                932.3105  ;New Junction
 J892                                919.1898  ;New Junction
 J894                                936.2480  ;New Junction
 J896                                939.1160  ;New Junction
 J898                                939.2073  ;New Junction
 J90                                 947.1110  ;New Junction
 J900                                939.2073  ;New Junction
 J902                                939.2073  ;New Junction
 J904                                939.4598  ;New Junction
 J906                                939.4598  ;New Junction
 J908                                938.8524  ;New Junction
 J910                                930.9987  ;New Junction
 J912                                913.5500  ;New Junction
 J914                                930.0598  ;New Junction
 J916                                933.4957  ;New Junction
 J918                                944.3593  ;New Junction
 J92                                 945.7493  ;New Junction
 J920                                944.1504  ;New Junction
 J922                                939.3978  ;New Junction
 J924                                942.6558  ;New Junction
 J926                                930.4141  ;New Junction
 J928                                930.4141  ;New Junction
 J930                                937.3450  ;New Junction
 J932                                922.0609  ;New Junction
 J934                                920.8902  ;New Junction
 J936                                922.2313  ;New Junction