[TITLE]

[JUNCTIONS]
J10	940.000000	;New Junction
J100	945.820435	;New Junction
J1000	918.945374	;New Junction
J1002	924.396179	;New Junction
J1004	928.519287	;New Junction
J1006	928.585938	;New Junction
J1008	954.054138	;New Junction
J1010	948.263306	;New Junction
J1012	948.263306	;New Junction
J1014	931.116272	;New Junction
J1016	930.877625	;New Junction
J1018	930.190735	;New Junction
J102	934.969238	;New Junction
J1020	929.549011	;New Junction
J1022	927.701294	;New Junction
J1024	928.670532	;New Junction
J1026	928.670532	;New Junction
J1028	928.670532	;New Junction
J1030	954.593689	;New Junction
J1032	954.175171	;New Junction
J1034	929.825439	;New Junction
J1036	931.114502	;New Junction
J1038	939.207336	;New Junction
J104	934.347717	;New Junction
J1040	929.829529	;New Junction
J1042	930.227234	;New Junction
J1044	931.237366	;New Junction
J1046	931.489807	;New Junction
J1048	931.828613	;New Junction
J1050	932.054993	;New Junction
J1052	932.880981	;New Junction
J1054	933.610840	;New Junction
J1056	933.867981	;New Junction
J1058	934.612305	;New Junction
J106	913.102905	;New Junction
J1060	937.666382	;New Junction
J1062	954.054138	;RAP.VAM.001.FIT.002.000.000
J1064	950.895813	;New Junction
J108	913.102905	;New Junction
J1088	939.276245	;New Junction
J1098	934.460449	;New Junction
J110	911.876770	;New Junction
J1100	934.077881	;New Junction
J112	911.876770	;New Junction
J114	918.156433	;New Junction
J116	916.638611	;New Junction
J118	940.000000	;New Junction
J12	940.000000	;New Junction
J120	940.000000	;New Junction
J122	939.956787	;New Junction
J124	939.756714	;New Junction
J126	939.276245	;New Junction
J128	938.631897	;New Junction
J130	938.748901	;New Junction
J132	930.564636	;New Junction
J134	929.470642	;New Junction
J136	913.708618	;New Junction
J14	947.350586	;New Junction
J146	937.885803	;New Junction
J148	936.216675	;New Junction
J150	933.208313	;New Junction
J152	932.074524	;New Junction
J154	934.501709	;New Junction
J156	938.539490	;New Junction
J158	938.301758	;New Junction
J16	951.120239	;New Junction
J160	938.038635	;New Junction
J162	937.169128	;New Junction
J164	936.828308	;New Junction
J166	935.917664	;New Junction
J168	934.748657	;New Junction
J170	934.460449	;New Junction
J172	915.118103	;New Junction
J174	925.639832	;New Junction
J176	923.496460	;New Junction
J178	935.439819	;New Junction
J18	962.321472	;New Junction
J180	933.635437	;New Junction
J182	936.813171	;New Junction
J184	935.429626	;New Junction
J186	939.285767	;New Junction
J188	924.000000	;New Junction
J190	923.742493	;New Junction
J192	934.920349	;New Junction
J194	935.000000	;New Junction
J196	926.354492	;New Junction
J198	926.354492	;New Junction
J20	936.192383	;New Junction
J200	927.957764	;New Junction
J202	942.524780	;New Junction
J204	944.929199	;New Junction
J206	943.892822	;New Junction
J208	942.027954	;New Junction
J210	908.537659	;New Junction
J212	908.565613	;New Junction
J214	912.281921	;New Junction
J216	908.537659	;New Junction
J218	909.544617	;New Junction
J22	933.000000	;New Junction
J220	910.653809	;New Junction
J222	911.876770	;New Junction
J224	925.039429	;New Junction
J226	925.039429	;New Junction
J228	925.039429	;New Junction
J230	925.039429	;New Junction
J232	925.340332	;New Junction
J234	925.266663	;New Junction
J236	925.266663	;New Junction
J238	925.266663	;New Junction
J24	924.209167	;New Junction
J240	925.161682	;New Junction
J242	925.161682	;New Junction
J244	925.161682	;New Junction
J246	925.161682	;New Junction
J248	925.014587	;New Junction
J250	934.920349	;New Junction
J252	934.920349	;New Junction
J254	933.954224	;New Junction
J256	935.000000	;New Junction
J258	933.954224	;New Junction
J26	922.000000	;New Junction
J260	934.000000	;New Junction
J262	940.681213	;New Junction
J264	938.527832	;New Junction
J266	950.175537	;New Junction
J268	937.643250	;New Junction
J270	936.191772	;New Junction
J272	933.773987	;New Junction
J274	933.000000	;New Junction
J276	933.172180	;New Junction
J278	946.459961	;New Junction
J28	921.781006	;New Junction
J280	924.000000	;New Junction
J282	919.775146	;New Junction
J284	919.189758	;New Junction
J286	929.277588	;New Junction
J288	928.810547	;New Junction
J290	924.584106	;New Junction
J292	925.014587	;New Junction
J294	927.000000	;New Junction
J296	927.104614	;New Junction
J298	933.635437	;New Junction
J30	918.574890	;New Junction
J300	934.347717	;New Junction
J302	934.347717	;New Junction
J304	933.635437	;New Junction
J306	939.397766	;New Junction
J308	939.397766	;New Junction
J310	930.998718	;New Junction
J312	930.998718	;New Junction
J314	927.511353	;New Junction
J316	925.983459	;New Junction
J318	926.396667	;New Junction
J32	918.298584	;New Junction
J320	925.288025	;New Junction
J322	912.281921	;New Junction
J324	912.281921	;New Junction
J326	913.313232	;New Junction
J328	913.313232	;New Junction
J330	913.424500	;New Junction
J332	912.964111	;New Junction
J334	920.276855	;New Junction
J336	919.381592	;New Junction
J338	922.770813	;New Junction
J34	918.945374	;New Junction
J340	922.770813	;New Junction
J342	924.612427	;New Junction
J344	925.581116	;New Junction
J346	930.059814	;New Junction
J348	929.995972	;New Junction
J350	928.204834	;New Junction
J352	928.204834	;New Junction
J354	932.762085	;New Junction
J356	932.762085	;New Junction
J358	938.163513	;New Junction
J36	918.574890	;New Junction
J360	937.328552	;New Junction
J362	937.818298	;New Junction
J364	941.959106	;New Junction
J366	942.812439	;New Junction
J368	942.502014	;New Junction
J370	942.934204	;New Junction
J372	942.353943	;New Junction
J374	942.353943	;New Junction
J376	939.572754	;New Junction
J378	938.176575	;New Junction
J38	917.670227	;New Junction
J380	941.445190	;New Junction
J382	941.445190	;New Junction
J384	937.667114	;New Junction
J386	933.600464	;New Junction
J388	935.069397	;New Junction
J390	936.216675	;New Junction
J392	935.645569	;New Junction
J394	936.216675	;New Junction
J396	943.503967	;New Junction
J398	942.205811	;New Junction
J40	940.036621	;New Junction
J400	945.385010	;New Junction
J402	942.697266	;New Junction
J404	938.908386	;New Junction
J406	939.793945	;New Junction
J408	942.879272	;New Junction
J410	943.969055	;New Junction
J412	945.181458	;New Junction
J414	946.000000	;New Junction
J416	946.000000	;New Junction
J418	922.495422	;New Junction
J42	937.882446	;New Junction
J420	924.420410	;New Junction
J422	928.204834	;New Junction
J424	928.615173	;New Junction
J426	929.452148	;New Junction
J428	930.362061	;New Junction
J430	932.041870	;New Junction
J432	934.185242	;New Junction
J434	936.444397	;New Junction
J436	938.914795	;New Junction
J438	940.810791	;New Junction
J44	936.249146	;New Junction
J440	913.424500	;New Junction
J442	913.424500	;New Junction
J444	914.642517	;New Junction
J446	916.621094	;New Junction
J448	923.292725	;New Junction
J450	920.276855	;New Junction
J452	924.650391	;New Junction
J454	925.791870	;New Junction
J456	932.434082	;New Junction
J458	931.297424	;New Junction
J46	935.906799	;New Junction
J460	937.274719	;New Junction
J462	924.472778	;New Junction
J464	927.303528	;New Junction
J466	923.496460	;New Junction
J468	923.496460	;New Junction
J470	930.635498	;New Junction
J472	928.915161	;New Junction
J474	934.022583	;New Junction
J476	930.797852	;New Junction
J478	930.611755	;New Junction
J48	945.041626	;New Junction
J480	934.202454	;New Junction
J482	934.501709	;New Junction
J484	934.501709	;New Junction
J486	934.202454	;New Junction
J488	931.941101	;New Junction
J490	929.458923	;New Junction
J492	928.067261	;New Junction
J494	928.067261	;New Junction
J496	947.225220	;New Junction
J498	946.802368	;New Junction
J50	946.225098	;New Junction
J500	947.000000	;New Junction
J502	946.000000	;New Junction
J504	945.364685	;New Junction
J506	930.807678	;New Junction
J508	932.000000	;New Junction
J510	960.075073	;New Junction
J512	962.761230	;New Junction
J514	948.199097	;New Junction
J516	946.459961	;New Junction
J518	941.722534	;New Junction
J52	944.150391	;New Junction
J520	947.476013	;New Junction
J522	942.761536	;New Junction
J524	934.163147	;New Junction
J526	934.365662	;New Junction
J528	934.851257	;New Junction
J530	930.150452	;New Junction
J532	930.032166	;New Junction
J534	930.414124	;New Junction
J536	929.083557	;New Junction
J538	930.414124	;New Junction
J54	946.714233	;New Junction
J540	931.632324	;New Junction
J542	932.129028	;New Junction
J544	932.056946	;New Junction
J546	931.545593	;New Junction
J548	930.460632	;New Junction
J550	929.814026	;New Junction
J552	931.049500	;New Junction
J554	923.752991	;New Junction
J556	923.184387	;New Junction
J558	923.040527	;New Junction
J56	952.505127	;New Junction
J560	926.349304	;New Junction
J562	930.699524	;New Junction
J564	929.000000	;New Junction
J566	933.950562	;New Junction
J568	932.000000	;New Junction
J570	938.876953	;New Junction
J572	934.423218	;New Junction
J574	937.330322	;New Junction
J576	934.084229	;New Junction
J578	934.460449	;New Junction
J58	941.578674	;New Junction
J580	933.284485	;New Junction
J582	932.541565	;New Junction
J584	940.557495	;New Junction
J586	934.746399	;New Junction
J588	935.096069	;New Junction
J590	935.000000	;New Junction
J592	934.341736	;New Junction
J594	934.000000	;New Junction
J596	937.953003	;New Junction
J598	939.364990	;New Junction
J60	941.578674	;New Junction
J600	939.380005	;New Junction
J602	938.539490	;New Junction
J604	934.746399	;New Junction
J606	939.000000	;New Junction
J608	948.263306	;New Junction
J610	948.519470	;New Junction
J612	947.947083	;New Junction
J614	947.947083	;New Junction
J616	950.985657	;New Junction
J618	949.438843	;New Junction
J62	940.036621	;New Junction
J620	949.743896	;New Junction
J622	939.658508	;New Junction
J624	939.670532	;New Junction
J626	933.601074	;New Junction
J628	946.783447	;New Junction
J630	944.621216	;New Junction
J632	943.749146	;New Junction
J634	943.234924	;New Junction
J636	942.034058	;New Junction
J638	941.279663	;New Junction
J64	937.866638	;New Junction
J640	940.945740	;New Junction
J642	940.402283	;New Junction
J644	940.000000	;New Junction
J646	953.514771	;New Junction
J648	950.895813	;New Junction
J650	946.903809	;New Junction
J652	947.350586	;New Junction
J654	939.459839	;New Junction
J656	939.769897	;New Junction
J658	932.748047	;New Junction
J66	934.061646	;New Junction
J660	932.772156	;New Junction
J662	932.772156	;New Junction
J664	932.898987	;New Junction
J666	932.670654	;New Junction
J668	716.983154	;New Junction
J670	931.554993	;New Junction
J672	932.772156	;New Junction
J674	929.613770	;New Junction
J676	931.597961	;New Junction
J678	933.843201	;New Junction
J68	931.350342	;New Junction
J680	933.435669	;New Junction
J682	933.000000	;New Junction
J684	932.790344	;New Junction
J686	960.919617	;New Junction
J688	958.935486	;New Junction
J690	957.265442	;New Junction
J692	948.989990	;New Junction
J694	949.489929	;New Junction
J696	953.887085	;New Junction
J698	955.763367	;New Junction
J70	935.175171	;New Junction
J700	949.167603	;New Junction
J702	936.921082	;New Junction
J704	947.307922	;New Junction
J706	947.125549	;New Junction
J708	938.307007	;New Junction
J710	934.674011	;New Junction
J712	932.325867	;New Junction
J714	920.528320	;New Junction
J716	919.775146	;New Junction
J718	923.271606	;New Junction
J72	937.815247	;New Junction
J720	920.230591	;New Junction
J722	920.313110	;New Junction
J724	919.599060	;New Junction
J726	920.270813	;New Junction
J728	922.286987	;New Junction
J730	923.796875	;New Junction
J732	923.764832	;New Junction
J734	923.955078	;New Junction
J736	925.090820	;New Junction
J738	928.213013	;New Junction
J74	934.826538	;New Junction
J740	926.817383	;New Junction
J742	925.789856	;New Junction
J744	924.484192	;New Junction
J746	923.934326	;New Junction
J748	933.422607	;New Junction
J750	931.240479	;New Junction
J752	931.083191	;New Junction
J754	931.317993	;New Junction
J756	932.847229	;New Junction
J758	932.431702	;New Junction
J76	935.137573	;New Junction
J760	934.164185	;New Junction
J762	932.517517	;New Junction
J764	934.384338	;New Junction
J766	930.496887	;New Junction
J768	930.458313	;New Junction
J770	930.091919	;New Junction
J772	929.202148	;New Junction
J774	926.691467	;New Junction
J776	927.556885	;New Junction
J778	929.000000	;New Junction
J78	937.791199	;New Junction
J780	926.706177	;New Junction
J782	922.767029	;New Junction
J784	921.774109	;New Junction
J786	928.585938	;New Junction
J788	926.822632	;New Junction
J790	928.441528	;New Junction
J792	928.637695	;New Junction
J794	927.193848	;New Junction
J796	924.394348	;New Junction
J798	926.432983	;New Junction
J80	937.791199	;New Junction
J800	924.597595	;New Junction
J802	924.564880	;New Junction
J804	928.519287	;New Junction
J806	928.585938	;New Junction
J808	929.505676	;New Junction
J810	929.259216	;New Junction
J812	929.542297	;New Junction
J814	925.349487	;New Junction
J816	925.672913	;New Junction
J818	923.489746	;New Junction
J82	939.632813	;New Junction
J820	921.179138	;New Junction
J822	918.885437	;New Junction
J824	920.000000	;New Junction
J826	918.682556	;New Junction
J828	918.682556	;New Junction
J830	917.101807	;New Junction
J832	917.101807	;New Junction
J834	935.906799	;New Junction
J836	936.293762	;New Junction
J838	933.431580	;New Junction
J84	938.785156	;New Junction
J840	944.150391	;New Junction
J842	939.657227	;New Junction
J844	940.000000	;New Junction
J846	939.617432	;New Junction
J848	939.527527	;New Junction
J850	955.000000	;New Junction
J854	954.648132	;New Junction
J856	955.000000	;New Junction
J858	954.648132	;New Junction
J86	947.500427	;New Junction
J862	954.054138	;RAP.VAM.001.FIT.002.000.000
J864	954.054138	;New Junction
J866	954.054138	;New Junction
J868	955.982422	;New Junction
J870	955.982422	;New Junction
J872	939.207336	;New Junction
J874	931.018921	;New Junction
J876	930.672058	;New Junction
J878	931.114502	;New Junction
J88	950.273987	;New Junction
J880	931.114502	;New Junction
J882	936.008667	;New Junction
J884	935.224854	;New Junction
J886	937.866089	;New Junction
J888	938.724365	;New Junction
J890	932.310486	;New Junction
J892	919.189758	;New Junction
J894	936.247986	;New Junction
J896	939.116028	;New Junction
J898	939.207336	;New Junction
J90	947.111023	;New Junction
J900	939.207336	;New Junction
J902	939.207336	;New Junction
J904	939.459839	;New Junction
J906	939.459839	;New Junction
J908	938.852356	;New Junction
J910	930.998718	;New Junction
J912	913.549988	;New Junction
J914	930.059814	;New Junction
J916	933.495667	;New Junction
J918	944.359253	;New Junction
J92	945.749268	;New Junction
J920	944.150391	;New Junction
J922	939.397766	;New Junction
J924	942.655762	;New Junction
J926	930.414124	;New Junction
J928	930.414124	;New Junction
J930	937.345032	;New Junction
J932	922.060852	;New Junction
J934	920.890198	;New Junction
J936	922.231262	;New Junction
J938	925.014587	;New Junction
J94	946.115051	;New Junction
J940	925.014587	;New Junction
J942	925.014587	;New Junction
J944	925.014587	;New Junction
J946	924.584106	;New Junction
J948	924.584106	;New Junction
J950	924.584106	;New Junction
J952	924.584106	;New Junction
J954	940.542725	;New Junction
J956	944.611328	;New Junction
J958	942.790588	;New Junction
J96	944.754272	;New Junction
J960	925.390076	;New Junction
J962	930.998718	;New Junction
J970	936.008667	;New Junction
J972	936.008667	;New Junction
J974	936.008667	;New Junction
J976	936.008667	;New Junction
J978	936.807861	;New Junction
J98	942.207092	;New Junction
J980	936.008667	;New Junction
J986	936.221497	;New Junction
J988	930.458313	;New Junction
J990	936.926453	;New Junction
J992	934.384338	;New Junction
J994	939.207336	;New Junction
J996	925.349487	;New Junction
J998	918.587341	;New Junction


[RESERVOIRS]
RES9004	1.0	PATN-1	;RAP.VAM.001
RES9006	1.0	PATN-3	;RAP.VAM.001

[TANKS]

[PIPES]
0	J10	J12	0.812481	250.000000	135.000000	0.000000	;
1	J14	J16	6.294194	300.000000	135.000000	0.000000	;
10	J38	J36	226.210125	110.000000	132.500000	0.000000	;
100	J22	J274	14.673712	60.000000	132.500000	0.000000	;
101	J274	J276	49.187364	60.000000	132.500000	0.000000	;
102	J276	J272	8.583184	60.000000	132.500000	0.000000	;
103	J266	J278	171.439240	32.000000	135.000000	0.000000	;
104	J280	J188	4.461123	60.000000	132.500000	0.000000	;
105	J282	J284	11.107013	160.000000	135.000000	0.000000	;
106	J286	J288	5.195134	110.000000	132.500000	0.000000	;
107	J290	J280	9.407950	60.000000	132.500000	0.000000	;
108	J250	J192	4.556865	60.000000	132.500000	0.000000	;
109	J248	J292	2.300819	60.000000	132.500000	0.000000	;
11	J40	J42	10.994385	60.000000	132.500000	0.000000	;
110	J292	J294	61.967246	60.000000	132.500000	0.000000	;
111	J294	J296	85.068102	60.000000	132.500000	0.000000	;
112	J180	J298	4.312922	60.000000	132.500000	0.000000	;
113	J300	J302	4.576210	60.000000	132.500000	0.000000	;
114	J302	J304	4.576210	60.000000	132.500000	0.000000	;
115	J306	J308	4.062770	32.000000	135.000000	0.000000	;
116	J310	J312	3.590014	60.000000	132.500000	0.000000	;
117	J314	J316	4.846452	32.000000	135.000000	0.000000	;
118	J318	J320	4.110487	32.000000	135.000000	0.000000	;
119	J322	J324	3.690000	32.000000	135.000000	0.000000	;
12	J44	J46	8.566008	60.000000	132.500000	0.000000	;
120	J326	J328	4.630011	32.000000	135.000000	0.000000	;
121	J330	J332	5.300000	32.000000	135.000000	0.000000	;
122	J334	J336	5.662579	32.000000	135.000000	0.000000	;
123	J338	J340	5.120957	32.000000	135.000000	0.000000	;
124	J342	J344	5.183098	32.000000	135.000000	0.000000	;
125	J346	J348	3.872002	32.000000	135.000000	0.000000	;
126	J350	J352	4.303917	32.000000	135.000000	0.000000	;
127	J354	J356	4.690128	32.000000	135.000000	0.000000	;
128	J264	J358	5.946066	32.000000	135.000000	0.000000	;
129	J360	J362	3.752892	32.000000	135.000000	0.000000	;
13	J48	J50	145.274776	60.000000	132.500000	0.000000	;
130	J364	J366	2.719007	60.000000	132.500000	0.000000	;
131	J366	J368	3.471743	60.000000	132.500000	0.000000	;
132	J368	J370	42.993843	85.000000	132.500000	0.000000	;
133	J372	J374	4.222843	32.000000	135.000000	0.000000	;
134	J364	J372	22.305246	32.000000	135.000000	0.000000	;
135	J376	J364	35.428376	60.000000	132.500000	0.000000	;
136	J376	J182	31.082981	60.000000	132.500000	0.000000	;
137	J378	J182	32.985004	32.000000	135.000000	0.000000	;
138	J380	J382	2.789193	32.000000	135.000000	0.000000	;
139	J384	J378	8.500006	32.000000	135.000000	0.000000	;
14	J48	J52	33.603847	63.000000	135.000000	0.000000	;
140	J386	J310	29.076664	32.000000	135.000000	0.000000	;
141	J388	J386	23.021703	32.000000	135.000000	0.000000	;
142	J390	J392	13.818574	32.000000	135.000000	0.000000	;
143	J394	J390	1.513209	32.000000	135.000000	0.000000	;
144	J148	J394	2.865589	32.000000	135.000000	0.000000	;
145	J384	J148	25.211446	32.000000	135.000000	0.000000	;
146	J396	J398	17.577250	85.000000	132.500000	0.000000	;
147	J400	J396	35.934721	32.000000	135.000000	0.000000	;
148	J402	J400	49.289027	32.000000	135.000000	0.000000	;
149	J402	J262	44.780211	32.000000	135.000000	0.000000	;
15	J54	J56	17.073518	60.000000	132.500000	0.000000	;
150	J404	J72	16.388859	32.000000	135.000000	0.000000	;
151	J406	J84	30.899928	60.000000	132.500000	0.000000	;
152	J408	J406	35.401024	60.000000	132.500000	0.000000	;
153	J410	J408	36.839427	60.000000	132.500000	0.000000	;
154	J412	J410	23.061693	85.000000	132.500000	0.000000	;
155	J414	J416	6.507111	85.000000	132.500000	0.000000	;
156	J94	J414	13.114942	85.000000	132.500000	0.000000	;
157	J338	J114	56.012529	32.000000	135.000000	0.000000	;
158	J342	J418	42.701898	32.000000	135.000000	0.000000	;
159	J420	J418	34.083207	32.000000	135.000000	0.000000	;
16	J58	J54	25.937403	60.000000	132.500000	0.000000	;
160	J422	J420	43.027728	32.000000	135.000000	0.000000	;
161	J424	J422	26.209298	32.000000	135.000000	0.000000	;
162	J426	J424	23.838809	32.000000	135.000000	0.000000	;
163	J428	J426	11.731841	32.000000	135.000000	0.000000	;
164	J430	J428	36.149169	32.000000	135.000000	0.000000	;
165	J432	J430	36.218530	32.000000	135.000000	0.000000	;
166	J434	J432	25.072513	32.000000	135.000000	0.000000	;
167	J436	J434	35.066304	32.000000	135.000000	0.000000	;
168	J438	J436	38.921535	32.000000	135.000000	0.000000	;
169	J216	J210	0.885438	32.000000	135.000000	0.000000	;
17	J60	J58	6.140125	60.000000	132.500000	0.000000	;
170	J326	J322	24.647550	32.000000	135.000000	0.000000	;
171	J440	J442	8.872114	32.000000	135.000000	0.000000	;
172	J444	J330	10.752009	32.000000	135.000000	0.000000	;
173	J446	J444	12.889143	32.000000	135.000000	0.000000	;
174	J334	J446	35.705669	32.000000	135.000000	0.000000	;
175	J448	J450	22.640632	32.000000	135.000000	0.000000	;
176	J452	J454	10.697112	32.000000	135.000000	0.000000	;
177	J452	J448	13.360528	32.000000	135.000000	0.000000	;
178	J456	J458	27.042502	32.000000	135.000000	0.000000	;
179	J456	J132	22.324742	32.000000	135.000000	0.000000	;
18	J62	J60	12.408904	60.000000	132.500000	0.000000	;
180	J460	J456	51.436461	32.000000	135.000000	0.000000	;
181	J98	J360	44.426276	32.000000	135.000000	0.000000	;
182	J96	J206	9.249649	32.000000	135.000000	0.000000	;
183	J462	J464	32.467762	32.000000	135.000000	0.000000	;
184	J466	J176	7.831449	32.000000	135.000000	0.000000	;
185	J466	J468	12.800941	32.000000	135.000000	0.000000	;
186	J468	J462	12.800941	32.000000	135.000000	0.000000	;
187	J314	J466	65.832658	32.000000	135.000000	0.000000	;
188	J470	J472	5.323392	32.000000	135.000000	0.000000	;
189	J474	J470	37.470934	32.000000	135.000000	0.000000	;
19	J64	J40	20.915872	60.000000	132.500000	0.000000	;
190	J476	J478	31.750691	32.000000	135.000000	0.000000	;
191	J480	J482	1.789078	60.000000	132.500000	0.000000	;
192	J474	J480	21.562504	32.000000	135.000000	0.000000	;
193	J482	J484	4.979046	60.000000	132.500000	0.000000	;
194	J486	J480	10.078492	60.000000	132.500000	0.000000	;
195	J154	J484	10.230078	60.000000	132.500000	0.000000	;
196	J72	J484	72.515759	60.000000	132.500000	0.000000	;
197	J488	J486	15.680000	60.000000	132.500000	0.000000	;
198	J490	J488	27.374806	60.000000	132.500000	0.000000	;
199	J492	J490	100.360676	60.000000	132.500000	0.000000	;
2	J16	J18	28.096040	300.000000	135.000000	0.000000	;
20	J66	J68	27.605460	60.000000	132.500000	0.000000	;
200	J494	J318	60.473555	32.000000	135.000000	0.000000	;
201	J68	J494	30.281100	60.000000	132.500000	0.000000	;
202	J496	J90	44.352882	32.000000	135.000000	0.000000	;
203	J498	J496	39.555516	32.000000	135.000000	0.000000	;
204	J500	J498	41.495095	32.000000	135.000000	0.000000	;
205	J502	J100	19.097984	85.000000	132.500000	0.000000	;
206	J502	J504	20.279295	85.000000	132.500000	0.000000	;
207	J398	J438	37.016456	85.000000	132.500000	0.000000	;
208	J370	J398	23.840354	85.000000	132.500000	0.000000	;
209	J506	J508	67.291526	60.000000	132.500000	0.000000	;
21	J70	J72	88.308274	32.000000	135.000000	0.000000	;
210	J508	J274	79.871656	60.000000	132.500000	0.000000	;
211	J510	J512	39.999983	32.000000	135.000000	0.000000	;
212	J278	J514	60.280892	60.000000	132.500000	0.000000	;
213	J516	J278	4.736887	60.000000	132.500000	0.000000	;
214	J518	J520	165.546508	60.000000	132.500000	0.000000	;
215	J522	J518	79.844079	60.000000	132.500000	0.000000	;
216	J524	J526	34.713799	60.000000	132.500000	0.000000	;
217	J528	J524	17.465122	110.000000	132.500000	0.000000	;
218	J530	J532	24.286080	60.000000	132.500000	0.000000	;
219	J534	J536	22.472436	60.000000	132.500000	0.000000	;
22	J74	J70	31.835428	32.000000	135.000000	0.000000	;
220	J506	J538	30.538845	60.000000	132.500000	0.000000	;
221	J540	J542	95.253547	60.000000	132.500000	0.000000	;
222	J542	J544	95.253547	60.000000	132.500000	0.000000	;
223	J544	J546	95.253547	60.000000	132.500000	0.000000	;
224	J546	J548	95.253547	60.000000	132.500000	0.000000	;
225	J548	J530	95.253547	60.000000	132.500000	0.000000	;
226	J550	J552	38.367991	110.000000	132.500000	0.000000	;
227	J286	J550	12.703708	110.000000	132.500000	0.000000	;
228	J296	J286	51.343624	110.000000	132.500000	0.000000	;
229	J224	J296	65.012687	110.000000	132.500000	0.000000	;
23	J76	J74	40.151376	60.000000	132.500000	0.000000	;
230	J554	J224	211.752555	60.000000	132.500000	0.000000	;
231	J556	J558	4.130000	60.000000	132.500000	0.000000	;
232	J174	J556	48.495495	60.000000	132.500000	0.000000	;
233	J560	J174	197.170100	60.000000	132.500000	0.000000	;
234	J296	J560	140.859597	110.000000	132.500000	0.000000	;
235	J550	J562	280.208574	60.000000	132.500000	0.000000	;
236	J564	J550	80.387453	60.000000	132.500000	0.000000	;
237	J564	J536	18.809239	60.000000	132.500000	0.000000	;
238	J294	J536	77.971415	60.000000	132.500000	0.000000	;
239	J566	J568	71.471774	60.000000	132.500000	0.000000	;
24	J76	J66	13.236106	60.000000	132.500000	0.000000	;
240	J532	J506	16.410411	60.000000	132.500000	0.000000	;
241	J540	J570	166.482100	60.000000	132.500000	0.000000	;
242	J572	J102	59.105419	60.000000	132.500000	0.000000	;
243	J574	J516	107.481677	60.000000	132.500000	0.000000	;
244	J576	J514	110.794578	60.000000	132.500000	0.000000	;
245	J508	J568	14.699721	60.000000	132.500000	0.000000	;
246	J578	J580	89.181213	160.000000	135.000000	0.000000	;
247	J580	J582	89.181213	160.000000	135.000000	0.000000	;
248	J582	J542	89.181213	160.000000	135.000000	0.000000	;
249	J542	J552	89.181213	160.000000	135.000000	0.000000	;
25	J78	J80	2.845699	60.000000	132.500000	0.000000	;
250	J584	J520	161.088022	60.000000	132.500000	0.000000	;
251	J156	J584	68.003478	60.000000	132.500000	0.000000	;
252	J526	J586	145.220349	110.000000	132.500000	0.000000	;
253	J588	J526	18.993170	60.000000	132.500000	0.000000	;
254	J590	J588	133.154083	60.000000	132.500000	0.000000	;
255	J592	J590	46.541935	60.000000	132.500000	0.000000	;
256	J592	J594	13.286222	60.000000	132.500000	0.000000	;
257	J596	J592	224.531975	60.000000	132.500000	0.000000	;
258	J126	J598	59.497753	160.000000	135.000000	0.000000	;
259	J598	J600	59.497753	160.000000	135.000000	0.000000	;
26	J78	J82	13.082786	60.000000	132.500000	0.000000	;
260	J600	J602	59.497753	160.000000	135.000000	0.000000	;
261	J602	J156	59.497753	160.000000	135.000000	0.000000	;
262	J586	J604	4.623193	60.000000	132.500000	0.000000	;
263	J606	J586	245.296404	110.000000	132.500000	0.000000	;
264	J608	J610	23.310150	60.000000	132.500000	0.000000	;
265	J612	J614	2.758623	60.000000	132.500000	0.000000	;
266	J616	J618	27.397275	60.000000	132.500000	0.000000	;
267	J620	J618	11.758231	60.000000	132.500000	0.000000	;
268	J612	J620	26.037803	60.000000	132.500000	0.000000	;
269	J622	J612	205.599477	60.000000	132.500000	0.000000	;
27	J84	J78	19.056907	60.000000	132.500000	0.000000	;
270	J624	J626	475.328875	60.000000	132.500000	0.000000	;
271	J616	J628	208.184344	60.000000	132.500000	0.000000	;
272	J628	J630	208.184344	60.000000	132.500000	0.000000	;
273	J630	J632	208.184344	60.000000	132.500000	0.000000	;
274	J632	J634	208.184344	60.000000	132.500000	0.000000	;
275	J634	J636	208.184344	60.000000	132.500000	0.000000	;
276	J636	J638	208.184344	60.000000	132.500000	0.000000	;
277	J638	J640	208.184344	60.000000	132.500000	0.000000	;
278	J640	J642	208.184344	60.000000	132.500000	0.000000	;
279	J642	J644	208.184344	60.000000	132.500000	0.000000	;
28	J86	J88	14.160950	32.000000	135.000000	0.000000	;
280	J644	J624	208.184344	60.000000	132.500000	0.000000	;
281	J646	J648	55.294481	60.000000	132.500000	0.000000	;
282	J650	J646	27.700415	60.000000	132.500000	0.000000	;
283	J652	J654	148.106609	60.000000	132.500000	0.000000	;
284	J650	J652	70.364796	60.000000	132.500000	0.000000	;
285	J656	J650	167.989523	60.000000	132.500000	0.000000	;
286	J658	J660	15.202763	60.000000	132.500000	0.000000	;
287	J662	J664	114.987196	32.000000	135.000000	0.000000	;
288	J664	J666	114.987196	32.000000	135.000000	0.000000	;
289	J666	J668	114.987196	32.000000	135.000000	0.000000	;
29	J90	J86	36.496575	32.000000	135.000000	0.000000	;
290	J668	J670	114.987196	32.000000	135.000000	0.000000	;
291	J660	J672	2.195313	60.000000	132.500000	0.000000	;
292	J660	J662	2.096115	60.000000	132.500000	0.000000	;
293	J674	J676	71.168353	60.000000	132.500000	0.000000	;
294	J678	J680	85.700095	60.000000	132.500000	0.000000	;
295	J682	J658	11.503434	60.000000	132.500000	0.000000	;
296	J684	J682	7.476376	60.000000	132.500000	0.000000	;
297	J658	J680	4.009638	60.000000	132.500000	0.000000	;
298	J686	J510	10.000100	32.000000	135.000000	0.000000	;
299	J688	J686	28.699997	32.000000	135.000000	0.000000	;
3	J20	J22	108.989866	60.000000	132.500000	0.000000	;
30	J82	J90	51.026770	32.000000	135.000000	0.000000	;
300	J690	J688	14.800042	32.000000	135.000000	0.000000	;
301	J692	J694	58.080542	32.000000	135.000000	0.000000	;
302	J694	J696	58.080542	32.000000	135.000000	0.000000	;
303	J696	J698	58.080542	32.000000	135.000000	0.000000	;
304	J698	J690	58.080542	32.000000	135.000000	0.000000	;
305	J692	J700	1.499912	32.000000	135.000000	0.000000	;
306	J692	J702	119.952334	60.000000	132.500000	0.000000	;
307	J704	J706	1.000013	32.000000	135.000000	0.000000	;
308	J708	J128	148.690191	60.000000	132.500000	0.000000	;
309	J128	J704	148.690191	60.000000	132.500000	0.000000	;
31	J92	J94	14.922098	85.000000	132.500000	0.000000	;
310	J528	J710	38.771228	110.000000	132.500000	0.000000	;
311	J712	J656	427.161166	60.000000	132.500000	0.000000	;
312	J714	J716	63.918310	85.000000	132.500000	0.000000	;
313	J714	J718	85.735261	85.000000	132.500000	0.000000	;
314	J720	J722	70.202238	85.000000	132.500000	0.000000	;
315	J722	J714	62.999092	85.000000	132.500000	0.000000	;
316	J724	J720	59.401885	85.000000	132.500000	0.000000	;
317	J726	J724	66.412408	85.000000	132.500000	0.000000	;
318	J728	J726	69.897468	60.000000	132.500000	0.000000	;
319	J730	J732	70.184867	60.000000	132.500000	0.000000	;
32	J96	J98	45.942121	60.000000	132.500000	0.000000	;
320	J734	J730	63.509407	60.000000	132.500000	0.000000	;
321	J720	J730	82.053759	60.000000	132.500000	0.000000	;
322	J736	J734	66.836772	60.000000	132.500000	0.000000	;
323	J738	J736	71.964378	60.000000	132.500000	0.000000	;
324	J728	J738	76.745092	60.000000	132.500000	0.000000	;
325	J726	J736	78.802431	60.000000	132.500000	0.000000	;
326	J734	J724	80.416646	60.000000	132.500000	0.000000	;
327	J732	J718	60.739057	60.000000	132.500000	0.000000	;
328	J722	J732	84.143119	60.000000	132.500000	0.000000	;