[TITLE]

[JUNCTIONS]
;ID                      Elevation       Demand Pattern                 
 N1                            1129.5               0                            ;
 N2                           1129.41  0.057706273393                            ;
 N3                           1128.59               0                            ;
 N4                           1126.49               0                            ;
 N5                           1124.13 0.0072450810809                            ;
 N6                           1120.72               0                            ;
 N7                           1117.39               0                            ;
 N8                           1112.73 0.0071178934537                            ;
 N9                           1109.25               0                            ;
 N10                          1103.94               0                            ;
 N11                          1100.84               0                            ;
 N12                           1098.5  0.056443624458                            ;
 N13                          1091.82   0.02244400253                            ;
 N14                          1089.72  0.010106802693                            ;
 N15                          1089.81  0.010997116083                            ;
 N16                          1092.78   0.17031246259                            ;
 N17                          1102.05   0.12097750425                            ;
 N18                          1109.72  0.078369649142                            ;
 N19                          1112.09  0.013477274813                            ;
 N20                          1114.32               0                            ;
 N21                           1115.6  0.072205662892                            ;
 N22                           1116.1  0.083779736966                            ;
 N23                          1116.52 0.0075630501488                            ;
 N24                          1116.58               0                            ;
 N25                          1118.72   0.10329842407                            ;
 N26                          1117.93               0                            ;
 N27                          1117.89  0.075766916453                            ;
 N28                          1120.36  0.094263488871                            ;
 N29                          1125.61  0.069162387177                            ;
 N30                          1129.03  0.079764099372                            ;
 N31                          1131.05  0.083334580271                            ;
 N32                           1133.5   0.12837645742                            ;
 N33                          1135.13               0                            ;
 N34                          1135.62  0.046322980759                            ;
 N35                          1138.95               0                            ;
 N36                           1137.8  0.029361887205                            ;
 N37                          1136.33               0                            ;
 N38                          1134.46  0.044238225917                            ;
 N39                          1132.78               0                            ;
 N40                          1130.94               0                            ;

[RESERVOIRS]
;ID                                   Head                  Pattern

[TANKS]
;ID                              Elevation           Init Level            Min Level            Max Level             Diameter           Min Volume Volume Curve         Overflow            

[PIPES]
;ID                   Node1                Node2                              Length             Diameter            Roughness           Minor Loss               Status
 P1                   N1                   N2                      8.8403576887              90             140               0                 Open   ;
 P2                   N2                   N3                      16.971157974              90             140               0                 Open   ;
 P3                   N3                   N4                      40.818120065              90             140               0                 Open   ;
 P4                   N4                   N5                      42.191574749              90             140               0                 Open   ;
 P5                   N5                   N6                      49.506655875              90             140               0                 Open   ;
 P6                   N6                   N7                      38.460316889              90             140               0                 Open   ;
 P7                   N7                   N8                      51.399010332              90             140               0                 Open   ;
 P8                   N8                   N9                       37.07181183              90             140               0                 Open   ;
 P9                   N9                   N10                     57.456079309              90             140               0                 Open   ;
 P10                  N10                  N11                     41.427788102              90             140               0                 Open   ;
 P11                  N11                  N12                      42.94241711              90             140               0                 Open   ;
 P12                  N12                  N13                     130.73348418              90             140               0                 Open   ;
 P13                  N13                  N14                     68.319515072              90             140               0                 Open   ;
 P14                  N14                  N15                     61.747869556              90             140               0                 Open   ;
 P15                  N15                  N16                     118.02959948              90             140               0                 Open   ;
 P16                  N16                  N17                     282.48705469              90             140               0                 Open   ;
 P17                  N17                  N18                     224.74902743              90             140               0                 Open   ;
 P18                  N18                  N19                     102.13555191              90             140               0                 Open   ;
 P19                  N19                  N20                     119.25298132              90             140               0                 Open   ;
 P20                  N20                  N21                     96.999539947              90             140               0                 Open   ;
 P21                  N21                  N22                     105.07592592              90             140               0                 Open   ;
 P22                  N22                  N23                     113.29436355              90             140               0                 Open   ;
 P23                  N23                  N24                     78.567265145              90             140               0                 Open   ;
 P24                  N24                  N25                     74.303693157              90             140               0                 Open   ;
 P25                  N25                  N26                      91.07370922              90             140               0                 Open   ;
 P26                  N26                  N27                     113.93309167              90             140               0                 Open   ;
 P27                  N27                  N28                     154.04565166              90             140               0                 Open   ;
 P28                  N28                  N29                     131.93278593              90             140               0                 Open   ;
 P29                  N29                  N30                     111.53463938              90             140               0                 Open   ;
 P30                  N30                  N31                     111.13934876              90             140               0                 Open   ;
 P31                  N31                  N32                     121.34739273              90             140               0                 Open   ;
 P32                  N32                  N33                     111.82434023              90             140               0                 Open   ;
 P33                  N33                  N34                     27.774991202              90             140               0                 Open   ;
 P34                  N35                  N36                     48.736649506             110             132               0                 Open   ;
 P35                  N36                  N37                     50.021967592             110             132               0                 Open   ;
 P36                  N37                  N38                     49.996904721             110             132               0                 Open   ;
 P37                  N38                  N39                     49.967612644             110             132               0                 Open   ;
 P38                  N39                  N40                     49.999990434             110             132               0                 Open   ;
 P39                  N40                  N1                      32.948675939             110             132               0                 Open   ;

[PUMPS]
;ID                   Node1                Node2                Properties          

[VALVES]
;ID                   Node1                Node2                            Diameter Type              Setting           Minor Loss

[TAGS]
;type      name       tag       

[DEMANDS]
;ID        Demand     Pattern   

[STATUS]
;ID        Setting   

[PATTERNS]
;ID        Multipliers

[CURVES]
;ID         X-Value      Y-Value     

[CONTROLS]

[RULES]

[ENERGY]
GLOBAL PRICE           0.0000

[EMITTERS]
;ID        Flow coefficient

[QUALITY]

[SOURCES]
;Node      Type       Quality    Pattern   

[REACTIONS]
;Type           Pipe/Tank               Coefficient

 ORDER BULK 1
 ORDER TANK 1
 ORDER WALL 1
 GLOBAL BULK 0.0000    
 GLOBAL WALL 0.0000    

[MIXING]
;Tank ID             Model Fraction

[TIMES]
DURATION             00:00:00
HYDRAULIC TIMESTEP   01:00:00
QUALITY TIMESTEP     00:06:00
PATTERN TIMESTEP     01:00:00
PATTERN START        00:00:00
REPORT TIMESTEP      01:00:00
REPORT START         00:00:00
START CLOCKTIME      00:00:00 AM
RULE TIMESTEP        00:06:00
STATISTIC            NONE      

[REPORT]

[OPTIONS]
Units               LPS
Headloss            H-W                 
HEADLOSS             H-W                 
SPECIFIC GRAVITY     1
VISCOSITY            1
TRIALS               200
ACCURACY             0.001
CHECKFREQ            2
MAXCHECK             10
UNBALANCED           STOP                
PATTERN              1                   
DEMAND MULTIPLIER    1
EMITTER EXPONENT     0.5
QUALITY              NONE                
DIFFUSIVITY          1
TOLERANCE            0.01

[COORDINATES]
;Node      X-Coord    Y-Coord   
N1              -47.969058 -15.928666 
N2              -47.969112 -15.928727
N3              -47.969000 -15.928834
N4              -47.968743 -15.929107
N5              -47.968492 -15.929401
N6              -47.968207 -15.929752
N7              -47.968001 -15.930037
N8              -47.967753 -15.930434
N9              -47.967597 -15.930732
N10             -47.967391 -15.931211
N11             -47.967263 -15.931564
N12             -47.967157 -15.931938
N13             -47.966981 -15.933106
N14             -47.966863 -15.933713
N15             -47.966679 -15.934241
N16             -47.966152 -15.935177
N17             -47.964553 -15.937205
N18             -47.963296 -15.938829
N19             -47.962903 -15.939669
N20             -47.962678 -15.940724
N21             -47.962691 -15.941600
N22             -47.962876 -15.942531
N23             -47.963342 -15.943450
N24             -47.963733 -15.944049
N25             -47.964223 -15.944525
N26             -47.964873 -15.945054
N27             -47.965846 -15.945469
N28             -47.967260 -15.945720
N29             -47.968485 -15.945840
N30             -47.969523 -15.945919
N31             -47.970554 -15.946023
N32             -47.971683 -15.946120
N33             -47.972721 -15.946224
N34             -47.972978 -15.946250
N35             -47.971289 -15.927350
N36             -47.970870 -15.927521
N37             -47.970450 -15.927719
N38             -47.970045 -15.927941
N39             -47.969659 -15.928195
N40             -47.969287 -15.928468

[VERTICES]
;Link      X-Coord    Y-Coord   

[LABELS]

[BACKDROP]
UNITS    NONE

[END]
