; Filename: PK_QD28_TESTE_DOS_NOS_DUPLICADOS (20).inp
; WNTR: 1.3.2
; Created: 2025-08-20 10:12:45
[TITLE]

[JUNCTIONS]
;ID                      Elevation       Demand Pattern                 
 N8                           1129.41               0                            ;
 N9                           1126.49               0                            ;
 N10                          1124.13               0                            ;
 N11                          1120.72               0                            ;
 N12                          1114.15               0                            ;
 N13                          1109.25               0                            ;
 N14                          1102.35               0                            ;
 N15                          1098.63               0                            ;
 N16                          1096.43               0                            ;
 N17                          1093.58               0                            ;
 N18                          1089.72               0                            ;
 N19                          1089.81               0                            ;
 N20                          1091.99               0                            ;
 N21                           1093.5               0                            ;
 N22                          1095.83               0                            ;
 N23                          1102.39               0                            ;
 N24                          1105.38               0                            ;
 N25                           1109.9               0                            ;
 N26                          1112.09               0                            ;
 N27                          1113.47               0                            ;
 N28                          1114.32               0                            ;
 N29                          1115.11               0                            ;
 N30                           1115.6               0                            ;
 N31                          1116.19               0                            ;
 N32                          1116.52               0                            ;
 N33                          1116.58               0                            ;
 N34                          1117.68               0                            ;
 N35                          1117.93               0                            ;
 N36                          1117.89               0                            ;
 N37                          1118.12               0                            ;
 N38                          1120.76               0                            ;
 N39                          1124.53               0                            ;
 N40                          1127.98               0                            ;
 N41                          1130.59               0                            ;
 N42                          1132.51               0                            ;
 N43                          1134.02               0                            ;
 N44                          1135.63               0                            ;
 N45                          1136.98               0                            ;
 N46                          1136.56               0                            ;
 N49                          1139.99               0                            ;
 N50                          1138.29               0                            ;
 N51                          1138.09               0                            ;
 N52                          1138.61               0                            ;
 N53                          1131.71               0                            ;
 N54                          1129.63               0                            ;
 N55                          1127.66               0                            ;
 N56                          1125.29               0                            ;
 N57                          1122.93               0                            ;
 N58                          1119.98               0                            ;
 N59                          1117.28               0                            ;
 N60                          1115.69               0                            ;
 N61                          1111.91 0.0092085370304                            ;
 N62                          1108.15               0                            ;
 N63                          1105.75               0                            ;
 N64                           1101.9               0                            ;
 N65                          1102.13  0.017888141292                            ;
 N66                          1107.33               0                            ;
 N67                          1111.03               0                            ;
 N68                          1113.36               0                            ;
 N69                          1116.52               0                            ;
 N70                             1119               0                            ;
 N71                          1121.62               0                            ;
 N72                          1124.03               0                            ;
 N73                          1126.66               0                            ;
 N74                          1128.59               0                            ;
 N75                          1130.89               0                            ;
 N76                          1132.76  0.020525127594                            ;
 N77                          1133.43 0.0094787044581                            ;
 N78                          1134.07  0.018614929725                            ;
 N79                          1134.74 0.0035388262237                            ;
 N80                          1134.31  0.013652981475                            ;
 N81                          1133.98  0.018192555295                            ;
 N82                          1133.14  0.019996208263                            ;
 N83                          1132.64 0.0023972737123                            ;
 N84                          1130.75 0.0039916420533                            ;
 N85                          1131.36 0.0092085370304                            ;
 N86                          1132.16  0.018489358948                            ;
 N87                          1132.43  0.013835629877                            ;
 N88                          1131.95 0.0084246709726                            ;
 N89                          1131.68 0.0037214746256                            ;
 N90                          1130.95  0.017397273712                            ;
 N91                          1130.44  0.019360744032                            ;
 N92                          1128.45  0.013797578126                            ;
 N93                          1128.78               0                            ;
 N94                           1129.4               0                            ;
 N95                           1130.1               0                            ;
 N96                          1129.24               0                            ;
 N97                          1129.45               0                            ;
 N98                          1130.08  0.023116451795                            ;
 N99                          1130.46               0                            ;
 N100                         1130.15               0                            ;
 N101                         1129.79  0.017138535248                            ;
 N102                         1129.02 0.0026408049148                            ;
 N103                         1128.89               0                            ;
 N104                         1129.92               0                            ;
 N105                         1129.61               0                            ;
 N106                         1128.53  0.014512951034                            ;
 N107                         1128.07  0.023645384563                            ;
 N108                         1125.91               0                            ;
 N109                         1126.75               0                            ;
 N110                         1126.41               0                            ;
 N111                         1126.38  0.019041109329                            ;
 N112                         1126.44               0                            ;
 N113                         1126.83               0                            ;
 N114                          1128.3 0.0096765735601                            ;
 N115                         1128.09  0.018443710286                            ;
 N116                         1128.38               0                            ;
 N117                         1128.09               0                            ;
 N118                         1127.75               0                            ;
 N119                         1127.32  0.011921626833                            ;
 N120                         1126.99 0.0028386740167                            ;
 N121                         1126.58               0                            ;
 N122                         1126.41               0                            ;
 N123                         1126.17               0                            ;
 N124                         1125.69  0.012275508111                            ;
 N125                         1125.35               0                            ;
 N126                         1125.58               0                            ;
 N127                         1125.73               0                            ;
 N128                         1125.64  0.022294533986                            ;
 N129                         1123.39 0.0027397394658                            ;
 N130                         1124.01               0                            ;
 N131                         1124.54               0                            ;
 N132                         1125.28               0                            ;
 N133                         1124.61               0                            ;
 N134                         1123.98               0                            ;
 N135                         1123.36               0                            ;
 N136                         1122.83               0                            ;
 N137                         1120.45 0.0052093115038                            ;
 N138                         1121.01   0.12724521453                            ;
 N139                         1121.55 0.0084475020228                            ;
 N140                         1122.27 0.0092085370304                            ;
 N141                         1121.91  0.013394229572                            ;
 N142                         1121.18 0.0095776390091                            ;
 N143                         1120.75  0.005966527898                            ;
 N144                         1120.38               0                            ;
 N145                         1117.71 0.0023820530122                            ;
 N146                         1118.09   0.18626728455                            ;
 N147                         1118.26 0.0063470454018                            ;
 N148                         1118.64               0                            ;
 N149                         1118.39               0                            ;
 N150                         1118.19               0                            ;
 N151                         1117.75               0                            ;
 N152                         1117.26               0                            ;
 N153                          1111.7 0.0031202569696                            ;
 N154                         1112.54  0.012473377213                            ;
 N155                         1113.05  0.006263331551                            ;
 N156                          1112.7 0.0058713985221                            ;
 N157                         1112.22  0.019052524854                            ;
 N158                         1111.58  0.026628641793                            ;
 N159                         1111.22  0.013652981475                            ;
 N160                         1108.02 0.0050114289635                            ;
 N161                          1108.4 0.0092085370304                            ;
 N162                          1109.4 0.0092085370304                            ;
 N163                         1110.48 0.0092085370304                            ;
 N164                         1109.81 0.0092085370304                            ;
 N165                         1109.24 0.0092085370304                            ;
 N166                         1108.15 0.0092085370304                            ;
 N167                          1107.8 0.0092085370304                            ;
 N168                         1106.54               0                            ;
 N169                         1106.42  0.007869115417                            ;
 N170                         1106.29 0.0092085370304                            ;
 N171                         1106.22 0.0092085370304                            ;
 N172                         1105.95 0.0092085370304                            ;
 N173                         1105.67 0.0092085370304                            ;
 N174                         1105.38 0.0092085370304                            ;
 N175                         1105.33 0.0092085370304                            ;
 N176                         1105.06 0.0092085370304                            ;
 N177                         1105.27 0.0092085370304                            ;
 N178                         1105.39 0.0092085370304                            ;
 N179                         1105.63 0.0073059495114                            ;
 N180                         1105.62               0                            ;
 N181                         1106.01 0.0072564822359                            ;
 N182                         1106.28 0.0093797699072                            ;
 N183                         1106.48 0.0093911854323                            ;
 N184                         1106.91 0.0059322813227                            ;
 N185                         1102.23               0                            ;
 N186                         1101.66  0.012374442662                            ;
 N187                         1101.02  0.013675812525                            ;
 N188                         1101.31 0.0086453711248                            ;
 N189                         1101.55  0.017617973865                            ;
 N190                         1101.87               0                            ;
 N191                          1100.9               0                            ;
 N192                         1100.93  0.014767897761                            ;
 N193                         1102.02  0.020353894717                            ;
 N194                          1103.3   0.02263699974                            ;
 N195                         1104.16               0                            ;
 N196                         1104.95  0.017370637487                            ;
 N197                         1106.01 0.0091971215053                            ;
 N198                         1106.42  0.024516756209                            ;
 N199                         1106.41               0                            ;
 N200                         1105.51               0                            ;
 N201                         1105.53  0.015224518766                            ;
 N202                         1104.64 0.0086301504247                            ;
 N203                         1104.22               0                            ;
 N204                         1106.43               0                            ;
 N205                         1106.48 0.0075761169391                            ;
 N206                         1104.77 0.0079794654932                            ;
 N207                         1103.14 0.0044444578828                            ;
 N208                          1107.6 0.0092085370304                            ;
 N209                         1107.95 0.0092085370304                            ;
 N210                         1108.02               0                            ;
 N211                         1107.47               0                            ;
 N212                         1107.27               0                            ;
 N213                          1107.3  0.004063940379                            ;
 N214                         1107.65               0                            ;
 N215                         1107.57               0                            ;
 N216                         1107.73               0                            ;
 N217                         1107.99               0                            ;
 N218                         1108.13               0                            ;
 N219                         1108.38  0.010277791216                            ;
 N220                         1108.79  0.016609602479                            ;
 N221                         1109.37               0                            ;
 N222                          1109.3               0                            ;
 N223                         1109.04               0                            ;
 N224                         1108.94               0                            ;
 N225                         1108.84  0.014844001262                            ;
 N226                         1108.81               0                            ;
 N227                         1108.45               0                            ;
 N228                         1108.33               0                            ;
 N229                         1108.26 0.0092085370304                            ;
 N230                         1108.13 0.0092085370304                            ;
 N231                         1110.53 0.0050837272892                            ;
 N232                          1110.9 0.0069482630578                            ;
 N233                         1110.28 0.0052435446408                            ;
 N234                         1110.13  0.011761809481                            ;
 N235                         1111.09 0.0077854015662                            ;
 N236                         1110.74 0.0053538947169                            ;
 N237                          1110.8  0.013086010394                            ;
 N238                         1111.35 0.0083752036971                            ;
 N239                         1112.79 0.0092085370304                            ;
 N240                         1112.19 0.0092085370304                            ;
 N241                         1111.68 0.0092085370304                            ;
 N242                         1111.81 0.0092085370304                            ;
 N243                         1111.99 0.0092085370304                            ;
 N244                          1112.4  0.013493164123                            ;
 N245                         1112.67 0.0092085370304                            ;
 N246                         1113.38 0.0092085370304                            ;
 N247                         1116.08 0.0092085370304                            ;
 N248                         1115.58  0.019063940379                            ;
 N249                         1114.56 0.0095890545342                            ;
 N250                         1114.97 0.0080555689939                            ;
 N251                         1114.92  0.021114929725                            ;
 N252                         1115.28  0.016510667929                            ;
 N253                         1115.97 0.0048401960868                            ;
 N254                         1116.62 0.0092085370304                            ;
 N255                         1118.31 0.0046537425099                            ;
 N256                          1117.6  0.023607319374                            ;
 N257                         1116.48  0.023337165385                            ;
 N258                          1115.8   0.01019027219                            ;
 N259                         1115.98  0.014242783606                            ;
 N260                         1117.59 0.0083866192222                            ;
 N261                         1118.57  0.014562431747                            ;
 N262                         1120.87  0.005966527898                            ;
 N263                          1119.8  0.014634716635                            ;
 N264                         1118.75  0.011308993651                            ;
 N265                         1117.14 0.0024315202877                            ;
 N266                         1117.28  0.007366832312                            ;
 N267                         1118.82   0.01719940461                            ;
 N268                         1120.02  0.012412494413                            ;
 N269                         1120.97  0.013907928202                            ;
 N270                            1123 0.0092085370304                            ;
 N271                         1121.99 0.0092085370304                            ;
 N272                         1120.45 0.0092085370304                            ;
 N273                         1118.86 0.0092085370304                            ;
 N274                         1118.99 0.0092085370304                            ;
 N275                         1120.96 0.0092085370304                            ;
 N276                         1122.44 0.0092085370304                            ;
 N277                         1123.12 0.0092085370304                            ;
 N278                         1125.35 0.0031202569696                            ;
 N279                         1125.12 0.0092085370304                            ;
 N280                         1122.85 0.0092085370304                            ;
 N281                         1121.29 0.0092085370304                            ;
 N282                         1121.78 0.0092085370304                            ;
 N283                         1123.28 0.0092085370304                            ;
 N284                         1124.97 0.0092085370304                            ;
 N285                         1125.85 0.0092085370304                            ;
 N286                         1127.33 0.0082268018706                            ;
 N287                         1126.43 0.0035007744734                            ;
 N288                         1125.01  0.017861505067                            ;
 N289                         1123.89 0.0092085370304                            ;
 N290                         1124.21 0.0030327379437                            ;
 N291                         1125.55 0.0092085370304                            ;
 N292                         1126.71 0.0092085370304                            ;
 N293                         1127.58 0.0092085370304                            ;
 N294                         1129.73 0.0092085370304                            ;
 N295                            1129 0.0092085370304                            ;
 N296                         1127.19 0.0092085370304                            ;
 N297                         1125.53 0.0092085370304                            ;
 N298                         1125.98 0.0092085370304                            ;
 N299                         1127.42  0.028824214352                            ;
 N300                         1129.15 0.0092085370304                            ;
 N301                         1130.05 0.0092085370304                            ;
 N302                         1137.58               0                            ;
 N303                         1137.38               0                            ;
 N304                         1130.68               0                            ;
 N305                          1137.7 0.0041895111553                            ;
 N306                         1137.83 0.0090867714292                            ;
 N307                         1138.18 0.0095167562085                            ;
 N308                         1138.03 0.0026293893896                            ;
 N309                         1138.08  0.014817365037                            ;
 N310                         1137.96  0.013519813787                            ;
 N311                         1137.51 0.0039307592527                            ;
 N312                         1137.46  0.010669724245                            ;
 N313                         1131.39 0.0086948384003                            ;
 N314                         1132.32 0.0042389784307                            ;
 N315                         1132.33  0.011921626833                            ;
 N316                         1132.58  0.011000774473                            ;
 N317                         1132.03  0.014558613134                            ;
 N318                         1132.08  0.010509906893                            ;
 N319                         1131.58  0.008668202175                            ;
 N320                         1130.84  0.023489372387                            ;
 N321                         1129.65   0.13574600244                            ;
 N322                         1126.58  0.055825790175                            ;
 N323                         1115.94   0.17049487433                            ;
 N324                         1106.72  0.068595971041                            ;
 N325                         1104.46  0.054589148603                            ;
 N326                         1099.03  0.099410318814                            ;
 N327                         1105.15               0                            ;
 N328                         1119.07               0                            ;
 N329                          1117.1  0.068740608008                            ;
 N330                          1118.6   0.12146899914                            ;
 N331                         1119.55   0.15250018814                            ;
 N332                         1120.16   0.13594388499                            ;
 N333                         1121.72   0.06965382314                            ;
 N334                         1124.79  0.035814347773                            ;
 N335                         1114.24 0.0092085370304                            ;
 N336                         1114.68 0.0092085370304                            ;
 N337                         1115.09 0.0092085370304                            ;
 N338                         1115.74 0.0092085370304                            ;
 N339                         1115.81 0.0092085370304                            ;
 N340                         1115.15  0.012203223224                            ;
 N341                         1114.58 0.0092085370304                            ;
 N342                         1114.64 0.0093417181568                            ;
 N343                         1096.04 0.0055251275936                            ;
 N344                         1097.56 0.0075532858889                            ;
 N345                         1099.18 0.0080784000441                            ;
 N346                         1100.01 0.0092085370304                            ;
 N347                         1099.46  0.010350089542                            ;
 N348                         1098.41 0.0092085370304                            ;
 N349                         1097.61  0.021229098414                            ;
 N350                         1094.87               0                            ;
 N351                         1096.27 0.0092085370304                            ;
 N352                         1093.08 0.0088051884764                            ;
 N353                         1092.47  0.016697121505                            ;
 N354                         1095.63 0.0092085370304                            ;
 N355                         1096.86 0.0077968170913                            ;
 N356                         1098.53 0.0092085370304                            ;
 N357                          1100.3 0.0054261930426                            ;
 N358                          1102.4   0.10597424576                            ;
 N359                         1102.95 0.0092085370304                            ;
 N360                         1100.74 0.0090981869543                            ;
 N361                         1099.07  0.014463483758                            ;
 N362                         1097.68 0.0092085370304                            ;
 N363                         1104.21   0.03583336021                            ;
 N364                         1105.71  0.011050241749                            ;
 N365                         1107.33  0.018854655752                            ;
 N366                         1109.01 0.0081773345951                            ;
 N367                         1109.58   0.01219179426                            ;
 N368                         1107.85 0.0097869236362                            ;