; Filename: C:/Users/kaiorodrigues/Desktop/WNTR/1_Data/Vale_do_Amanhecer_Final_temp.inp
; WNTR: 0.5.0
; Created: 2023-05-09 08:12:48
[TITLE]

[JUNCTIONS]
;ID                      Elevation       Demand Pattern                 
 J10                              940               0 Consumo                    ;
 J100                        945.8204        0.022909 Consumo                    ;
 J1000                       918.9454        0.076365 Consumo                    ;
 J1002                       924.3962        0.122184 Consumo                    ;
 J1004                       928.5193        0.045819 Consumo                    ;
 J1006                       928.5859        0.068728 Consumo                    ;
 J1008                       954.0541               0 Consumo                    ;
 J1010                       948.2633               0 Consumo                    ;
 J1012                       948.2633        0.007636 Consumo                    ;
 J1014                       931.1163        0.106911 Consumo                    ;
 J1016                       930.8776        0.038182 Consumo                    ;
 J1018                       930.1907        0.030546 Consumo                    ;
 J102                        934.9692        0.076365 Consumo                    ;
 J1020                        929.549        0.038182 Consumo                    ;
 J1022                       927.7013        0.015273 Consumo                    ;
 J1024                       928.6705        0.007636 Consumo                    ;
 J1026                       928.6705               0 Consumo                    ;
 J1028                       928.6705        0.015273 Consumo                    ;
 J1030                       954.5937               0 Consumo                    ;
 J1032                       954.1752               0 Consumo                    ;
 J1034                       929.8254        0.045819 Consumo                    ;
 J1036                       931.1145        0.053455 Consumo                    ;
 J1038                       939.2073        0.045819 Consumo                    ;
 J104                        934.3477        0.015273 Consumo                    ;
 J1040                       929.8295        0.030546 Consumo                    ;
 J1042                       930.2272        0.030546 Consumo                    ;
 J1044                       931.2374        0.022909 Consumo                    ;
 J1046                       931.4898        0.030546 Consumo                    ;
 J1048                       931.8286        0.038182 Consumo                    ;
 J1050                        932.055        0.038182 Consumo                    ;
 J1052                        932.881        0.030546 Consumo                    ;
 J1054                       933.6108        0.084001 Consumo                    ;
 J1056                        933.868        0.030546 Consumo                    ;
 J1058                       934.6123        0.038182 Consumo                    ;
 J106                        913.1029               0 Consumo                    ;
 J1060                       937.6664        0.045819 Consumo                    ;
 RAP.VAM.001.FIT.001.000.000        954.0541               0 Consumo                    ;
 J1064                       950.8958               0 Consumo                    ;
 J108                        913.1029        0.030546 Consumo                    ;
 J1088                       939.2762               0 Consumo                    ;
 J1098                       934.4604               0 Consumo                    ;
 J110                        911.8768               0 Consumo                    ;
 J1100                       934.0779        0.038182 Consumo                    ;
 J112                        911.8768        0.007636 Consumo                    ;
 J114                        918.1564        0.038182 Consumo                    ;
 J116                        916.6386        0.015273 Consumo                    ;
 J118                             940               0 Consumo                    ;
 J12                              940               0 Consumo                    ;
 J120                             940               0 Consumo                    ;
 J122                        939.9568        0.053455 Consumo                    ;
 J124                        939.7567        0.053455 Consumo                    ;
 J126                        939.2762               0 Consumo                    ;
 J128                        938.6319        0.038182 Consumo                    ;
 J130                        938.7489        0.084001 Consumo                    ;
 J132                        930.5646        0.022909 Consumo                    ;
 J134                        929.4706        0.022909 Consumo                    ;
 J136                        913.7086         0.15273 Consumo                    ;
 J14                         947.3506        0.068728 Consumo                    ;
 J146                        937.8858        0.038182 Consumo                    ;
 J148                        936.2167               0 Consumo                    ;
 J150                        933.2083        0.068728 Consumo                    ;
 J152                        932.0745        0.084001 Consumo                    ;
 J154                        934.5017        0.022909 Consumo                    ;
 J156                        938.5395               0 Consumo                    ;
 J158                        938.3018        0.007636 Consumo                    ;
 J16                         951.1202        0.022909 Consumo                    ;
 J160                        938.0386        0.038182 Consumo                    ;
 J162                        937.1691        0.015273 Consumo                    ;
 J164                        936.8283               0 Consumo                    ;
 J166                        935.9177        0.038182 Consumo                    ;
 J168                        934.7487        0.022909 Consumo                    ;
 J170                        934.4604        0.015273 Consumo                    ;
 J172                        915.1181        0.007636 Consumo                    ;
 J174                        925.6398        0.076365 Consumo                    ;
 J176                        923.4965        0.076365 Consumo                    ;
 J178                        935.4398        0.015273 Consumo                    ;
 J18                         962.3215               0 Consumo                    ;
 J180                        933.6354        0.007636 Consumo                    ;
 J182                        936.8132        0.022909 Consumo                    ;
 J184                        935.4296        0.038182 Consumo                    ;
 J186                        939.2858        0.045819 Consumo                    ;
 J188                             924               0 Consumo                    ;
 J190                        923.7425               0 Consumo                    ;
 J192                        934.9203               0 Consumo                    ;
 J194                             935               0 Consumo                    ;
 J196                        926.3545        0.007636 Consumo                    ;
 J198                        926.3545        0.007636 Consumo                    ;
 J20                         936.1924        0.084001 Consumo                    ;
 J200                        927.9578        0.030546 Consumo                    ;
 J202                        942.5248        0.053455 Consumo                    ;
 J204                        944.9292               0 Consumo                    ;
 J206                        943.8928        0.007636 Consumo                    ;
 J208                         942.028        0.045819 Consumo                    ;
 J210                        908.5377               0 Consumo                    ;
 J212                        908.5656        0.007636 Consumo                    ;
 J214                        912.2819        0.007636 Consumo                    ;
 J216                        908.5377               0 Consumo                    ;
 J218                        909.5446        0.015273 Consumo                    ;
 J22                              933        0.045819 Consumo                    ;
 J220                        910.6538               0 Consumo                    ;
 J222                        911.8768               0 Consumo                    ;
 J224                        925.0394        0.114547 Consumo                    ;
 J226                        925.0394               0 Consumo                    ;
 J228                        925.0394               0 Consumo                    ;
 J230                        925.0394        0.007636 Consumo                    ;
 J232                        925.3403        0.015273 Consumo                    ;
 J234                        925.2667        0.015273 Consumo                    ;
 J236                        925.2667               0 Consumo                    ;
 J238                        925.2667        0.007636 Consumo                    ;
 J24                         924.2092        0.198548 Consumo                    ;
 J240                        925.1617        0.007636 Consumo                    ;
 J242                        925.1617               0 Consumo                    ;
 J244                        925.1617        0.007636 Consumo                    ;
 J246                        925.1617        0.007636 Consumo                    ;
 J248                        925.0146        0.007636 Consumo                    ;
 J250                        934.9203               0 Consumo                    ;
 J252                        934.9203               0 Consumo                    ;
 J254                        933.9542        0.022909 Consumo                    ;
 J256                             935        0.015273 Consumo                    ;
 J258                        933.9542        0.068728 Consumo                    ;
 J26                              922         0.12982 Consumo                    ;
 J260                             934               0 Consumo                    ;
 J262                        940.6812        0.099274 Consumo                    ;
 J264                        938.5278        0.045819 Consumo                    ;
 J266                        950.1755        0.084001 Consumo                    ;
 J268                        937.6432        0.030546 Consumo                    ;
 J270                        936.1918        0.198548 Consumo                    ;
 J272                         933.774        0.244367 Consumo                    ;
 J274                             933               0 Consumo                    ;
 J276                        933.1722        0.015273 Consumo                    ;
 J278                          946.46        0.114547 Consumo                    ;
 J28                          921.781        0.175639 Consumo                    ;
 J280                             924               0 Consumo                    ;
 J282                        919.7751               0 Consumo                    ;
 J284                        919.1898               0 Consumo                    ;
 J286                        929.2776        0.030546 Consumo                    ;
 J288                        928.8105        0.106911 Consumo                    ;
 J290                        924.5841               0 Consumo                    ;
 J292                        925.0146        0.022909 Consumo                    ;
 J294                             927        0.045819 Consumo                    ;
 J296                        927.1046        0.099274 Consumo                    ;
 J298                        933.6354        0.007636 Consumo                    ;
 J30                         918.5749               0 Consumo                    ;
 J300                        934.3477        0.007636 Consumo                    ;
 J302                        934.3477               0 Consumo                    ;
 J304                        933.6354               0 Consumo                    ;
 J306                        939.3978        0.007636 Consumo                    ;
 J308                        939.3978               0 Consumo                    ;
 J310                        930.9987        0.007636 Consumo                    ;
 J312                        930.9987        0.038182 Consumo                    ;
 J314                        927.5114        0.068728 Consumo                    ;
 J316                        925.9835        0.053455 Consumo                    ;
 J318                        926.3967        0.038182 Consumo                    ;
 J32                         918.2986        0.274913 Consumo                    ;
 J320                         925.288        0.022909 Consumo                    ;
 J322                        912.2819               0 Consumo                    ;
 J324                        912.2819        0.068728 Consumo                    ;
 J326                        913.3132               0 Consumo                    ;
 J328                        913.3132        0.015273 Consumo                    ;
 J330                        913.4245        0.007636 Consumo                    ;
 J332                        912.9641               0 Consumo                    ;
 J334                        920.2769        0.007636 Consumo                    ;
 J336                        919.3816        0.022909 Consumo                    ;
 J338                        922.7708               0 Consumo                    ;
 J34                         918.9454        0.015273 Consumo                    ;
 J340                        922.7708        0.007636 Consumo                    ;
 J342                        924.6124        0.053455 Consumo                    ;
 J344                        925.5811        0.015273 Consumo                    ;
 J346                        930.0598        0.007636 Consumo                    ;
 J348                         929.996        0.015273 Consumo                    ;
 J350                        928.2048        0.007636 Consumo                    ;
 J352                        928.2048        0.007636 Consumo                    ;
 J354                        932.7621               0 Consumo                    ;
 J356                        932.7621        0.015273 Consumo                    ;
 J358                        938.1635        0.091638 Consumo                    ;
 J36                         918.5749        0.183276 Consumo                    ;
 J360                        937.3286        0.022909 Consumo                    ;
 J362                        937.8183        0.007636 Consumo                    ;
 J364                        941.9591        0.015273 Consumo                    ;
 J366                        942.8124               0 Consumo                    ;
 J368                         942.502        0.007636 Consumo                    ;
 J370                        942.9342               0 Consumo                    ;
 J372                        942.3539        0.015273 Consumo                    ;
 J374                        942.3539        0.076365 Consumo                    ;
 J376                        939.5728        0.022909 Consumo                    ;
 J378                        938.1766        0.007636 Consumo                    ;
 J38                         917.6702        0.145093 Consumo                    ;
 J380                        941.4452        0.007636 Consumo                    ;
 J382                        941.4452        0.030546 Consumo                    ;
 J384                        937.6671        0.015273 Consumo                    ;
 J386                        933.6005        0.030546 Consumo                    ;
 J388                        935.0694        0.015273 Consumo                    ;
 J390                        936.2167        0.007636 Consumo                    ;
 J392                        935.6456        0.038182 Consumo                    ;
 J394                        936.2167        0.007636 Consumo                    ;
 J396                         943.504        0.007636 Consumo                    ;
 J398                        942.2058        0.030546 Consumo                    ;
 J40                         940.0366        0.007636 Consumo                    ;
 J400                         945.385        0.045819 Consumo                    ;
 J402                        942.6973        0.122184 Consumo                    ;
 J404                        938.9084        0.007636 Consumo                    ;
 J406                        939.7939        0.030546 Consumo                    ;
 J408                        942.8793        0.084001 Consumo                    ;
 J410                        943.9691        0.038182 Consumo                    ;
 J412                        945.1815        0.007636 Consumo                    ;
 J414                             946               0 Consumo                    ;
 J416                             946               0 Consumo                    ;
 J418                        922.4954        0.007636 Consumo                    ;
 J42                         937.8824        0.068728 Consumo                    ;
 J420                        924.4204        0.022909 Consumo                    ;
 J422                        928.2048               0 Consumo                    ;
 J424                        928.6152               0 Consumo                    ;
 J426                        929.4521        0.068728 Consumo                    ;
 J428                        930.3621               0 Consumo                    ;
 J430                        932.0419               0 Consumo                    ;
 J432                        934.1852        0.007636 Consumo                    ;
 J434                        936.4444        0.045819 Consumo                    ;
 J436                        938.9148        0.030546 Consumo                    ;
 J438                        940.8108        0.038182 Consumo                    ;
 J44                         936.2491        0.007636 Consumo                    ;
 J440                        913.4245               0 Consumo                    ;
 J442                        913.4245               0 Consumo                    ;
 J444                        914.6425        0.007636 Consumo                    ;
 J446                        916.6211        0.053455 Consumo                    ;
 J448                        923.2927        0.015273 Consumo                    ;
 J450                        920.2769        0.030546 Consumo                    ;
 J452                        924.6504               0 Consumo                    ;
 J454                        925.7919        0.007636 Consumo                    ;
 J456                        932.4341        0.045819 Consumo                    ;
 J458                        931.2974        0.030546 Consumo                    ;
 J46                         935.9068        0.015273 Consumo                    ;
 J460                        937.2747        0.030546 Consumo                    ;
 J462                        924.4728        0.030546 Consumo                    ;
 J464                        927.3035        0.038182 Consumo                    ;
 J466                        923.4965        0.022909 Consumo                    ;
 J468                        923.4965               0 Consumo                    ;
 J470                        930.6355               0 Consumo                    ;
 J472                        928.9152               0 Consumo                    ;
 J474                        934.0226        0.030546 Consumo                    ;
 J476                        930.7979        0.015273 Consumo                    ;
 J478                        930.6118        0.099274 Consumo                    ;
 J48                         945.0416        0.022909 Consumo                    ;
 J480                        934.2025               0 Consumo                    ;
 J482                        934.5017               0 Consumo                    ;
 J484                        934.5017               0 Consumo                    ;
 J486                        934.2025        0.022909 Consumo                    ;
 J488                        931.9411        0.038182 Consumo                    ;
 J490                        929.4589        0.084001 Consumo                    ;
 J492                        928.0673        0.022909 Consumo                    ;
 J494                        928.0673        0.038182 Consumo                    ;
 J496                        947.2252        0.022909 Consumo                    ;
 J498                        946.8024        0.038182 Consumo                    ;
 J50                         946.2251        0.068728 Consumo                    ;
 J500                             947        0.022909 Consumo                    ;
 J502                             946               0 Consumo                    ;
 J504                        945.3647        0.030546 Consumo                    ;
 J506                        930.8077               0 Consumo                    ;
 J508                             932               0 Consumo                    ;
 J510                        960.0751               0 Consumo                    ;
 J512                        962.7612               0 Consumo                    ;
 J514                        948.1991         0.15273 Consumo                    ;
 J516                          946.46        0.160366 Consumo                    ;
 J518                        941.7225        0.183276 Consumo                    ;
 J52                         944.1504               0 Consumo                    ;
 J520                         947.476        0.221458 Consumo                    ;
 J522                        942.7615        0.030546 Consumo                    ;
 J524                        934.1631        0.061092 Consumo                    ;
 J526                        934.3657        0.206185 Consumo                    ;
 J528                        934.8513        0.030546 Consumo                    ;
 J530                        930.1505               0 Consumo                    ;
 J532                        930.0322               0 Consumo                    ;
 J534                        930.4141               0 Consumo                    ;
 J536                        929.0836               0 Consumo                    ;
 J538                        930.4141               0 Consumo                    ;
 J54                         946.7142        0.038182 Consumo                    ;
 J540                        931.6323        0.267277 Consumo                    ;
 J542                         932.129        0.015273 Consumo                    ;
 J544                        932.0569               0 Consumo                    ;
 J546                        931.5456        0.015273 Consumo                    ;
 J548                        930.4606        0.007636 Consumo                    ;
 J550                         929.814        0.053455 Consumo                    ;
 J552                        931.0495        0.068728 Consumo                    ;
 J554                         923.753        0.206185 Consumo                    ;
 J556                        923.1844        0.091638 Consumo                    ;
 J558                        923.0405        0.038182 Consumo                    ;
 J56                         952.5051        0.007636 Consumo                    ;
 J560                        926.3493        0.488735 Consumo                    ;
 J562                        930.6995        0.450552 Consumo                    ;
 J564                             929        0.053455 Consumo                    ;
 J566                        933.9506        0.053455 Consumo                    ;
 J568                             932        0.084001 Consumo                    ;
 J570                         938.877         0.15273 Consumo                    ;
 J572                        934.4232        0.122184 Consumo                    ;
 J574                        937.3303         0.12982 Consumo                    ;
 J576                        934.0842        0.076365 Consumo                    ;
 J578                        934.4604        0.007636 Consumo                    ;
 J58                         941.5787        0.030546 Consumo                    ;
 J580                        933.2845        0.038182 Consumo                    ;
 J582                        932.5416        0.007636 Consumo                    ;
 J584                        940.5575        0.221458 Consumo                    ;
 J586                        934.7464        0.084001 Consumo                    ;
 J588                        935.0961        0.053455 Consumo                    ;
 J590                             935        0.114547 Consumo                    ;
 J592                        934.3417        0.168003 Consumo                    ;
 J594                             934        0.053455 Consumo                    ;
 J596                         937.953        0.175639 Consumo                    ;
 J598                         939.365        0.030546 Consumo                    ;
 J60                         941.5787        0.007636 Consumo                    ;
 J600                          939.38        0.030546 Consumo                    ;
 J602                        938.5395        0.022909 Consumo                    ;
 J604                        934.7464        0.649101 Consumo                    ;
 J606                             939        0.397097 Consumo                    ;
 J608                        948.2633        0.007636 Consumo                    ;
 J610                        948.5195        0.053455 Consumo                    ;
 J612                        947.9471               0 Consumo                    ;
 J614                        947.9471        0.068728 Consumo                    ;
 J616                        950.9857               0 Consumo                    ;
 J618                        949.4388        0.068728 Consumo                    ;
 J62                         940.0366        0.007636 Consumo                    ;
 J620                        949.7439               0 Consumo                    ;
 J622                        939.6585        0.030546 Consumo                    ;
 J624                        939.6705         0.28255 Consumo                    ;
 J626                        933.6011        0.122184 Consumo                    ;
 J628                        946.7834        0.022909 Consumo                    ;
 J630                        944.6212        0.053455 Consumo                    ;
 J632                        943.7491        0.076365 Consumo                    ;
 J634                        943.2349        0.068728 Consumo                    ;
 J636                        942.0341        0.084001 Consumo                    ;
 J638                        941.2797        0.068728 Consumo                    ;
 J64                         937.8666        0.022909 Consumo                    ;
 J640                        940.9457        0.061092 Consumo                    ;
 J642                        940.4023        0.022909 Consumo                    ;
 J644                             940               0 Consumo                    ;
 J646                        953.5148        0.007636 Consumo                    ;
 J648                        950.8958               0 Consumo                    ;
 J650                        946.9038         0.12982 Consumo                    ;
 J652                        947.3506        0.084001 Consumo                    ;
 J654                        939.4598        0.038182 Consumo                    ;
 J656                        939.7699        0.068728 Consumo                    ;
 J658                         932.748               0 Consumo                    ;
 J66                         934.0616        0.030546 Consumo                    ;
 J660                        932.7722               0 Consumo                    ;
 J662                        932.7722        0.015273 Consumo                    ;
 J664                         932.899        0.038182 Consumo                    ;
 J666                        932.6707               0 Consumo                    ;
 J668                          932.11        0.007636 Consumo                    ;
 J670                         931.555        0.030546 Consumo                    ;
 J672                        932.7722               0 Consumo                    ;
 J674                        929.6138        0.221458 Consumo                    ;
 J676                         931.598         0.15273 Consumo                    ;
 J678                        933.8432        0.106911 Consumo                    ;
 J68                         931.3503        0.022909 Consumo                    ;
 J680                        933.4357               0 Consumo                    ;
 J682                             933        0.030546 Consumo                    ;
 J684                        932.7903        0.099274 Consumo                    ;
 J686                        960.9196               0 Consumo                    ;
 J688                        958.9355               0 Consumo                    ;
 J690                        957.2654               0 Consumo                    ;