[TITLE]
asa_norte_se Apr-2017        

[JUNCTIONS]
;ID              	Elev        	Demand      	Pattern         
 1000002         	1088.7759   	0.10795547744135801	UDA.GUA.003     	;
 1000003         	1089.1581   	0.02475412221450617	UDA.GUA.003     	;
 1000005         	1093.0796   	0           	                	;
 1000006         	1098.3981   	0.00997041033757716	UDA.GUA.003     	;
 1000011         	1080.5331   	0           	                	;
 1000012         	1080.6143   	0           	                	;
 1000014         	1100.0000   	0.05260250971643519	UDA.GUA.003     	;
 1000015         	1100.0000   	0.05260250971643518	UDA.GUA.003     	;
 1000020         	1099.8191   	0.8296069015721451	UDA.GUA.003     	;
 1000022         	1099.9460   	0           	                	;
 1000023         	1049.2770   	0.018370423096064813	UDA.GUA.004     	;
 1000025         	1048.8087   	0           	                	;
 1000026         	1102.5962   	0           	                	;
 1000027         	1091.6029   	0.005178428603395062	UDA.GUA.002     	;
 1000029         	1080.7905   	0           	                	;
 1000030         	1080.7996   	0           	                	;
 1000031         	1079.8533   	0           	                	;
 1000034         	1079.8533   	0.003963764980709877	UDA.GUA.001     	;
 1000035         	1080.0726   	0.003963764980709877	UDA.GUA.001     	;
 1000037         	1080.0968   	0           	                	;
 1000044         	1077.8390   	0           	                	;
 1000046         	1079.2184   	0           	                	;
 1000047         	1093.8417   	0.10598517207561729	UDA.GUA.002     	;
 1000048         	1087.9827   	0.11254451497299384	UDA.GUA.002     	;
 1000049         	1087.2574   	0.011047314353780865	UDA.GUA.002     	;
 1000051         	1101.5872   	0.11737771500771606	UDA.GUA.002     	;
 1000052         	1101.5444   	0.02554691444830247	UDA.GUA.002     	;
 1000053         	1105.0000   	0.017606657249228396	UDA.GUA.002     	;
 1000054         	1105.0000   	0           	                	;
 1000061         	1102.1410   	0.0082854857658179	UDA.GUA.002     	;
 1000062         	1102.0847   	0.0         	UDA.GUA.002     	;
 1000063         	1095.0281   	0           	                	;
 1000064         	1094.9197   	0           	                	;
 1000067         	1100.7385   	0.019678028693287036	UDA.GUA.002     	;
 1000070         	1070.9857   	0.0937362614390432	UDA.GUA.004     	;
 1000071         	1098.7582   	0           	                	;
 1000073         	1075.2122   	0.11420597848668981	UDA.GUA.001     	;
 1000074         	1097.2114   	0.00966167713753858	UDA.GUA.001     	;
 1000075         	1067.9713   	0           	                	;
 1000080         	1071.8687   	0.26048317872974536	UDA.GUA.004     	;
 1000083         	1068.5504   	0           	                	;
 1000085         	1071.7980   	0.13283229007561728	UDA.GUA.004     	;
 1000087         	1065.5667   	1.5238030439583334	UDA.GUA.004     	;
 1000091         	1073.5101   	0           	                	;
 1000093         	1073.7151   	0           	                	;
 1000094         	1073.8875   	0.0037818797839506172	UDA.GUA.003     	;
 1000102         	1093.1199   	0.009321171485339506	UDA.GUA.002     	;
 1000105         	1090.9773   	0.007249800044367283	UDA.GUA.002     	;
 1000106         	1090.7565   	0           	                	;
 1000107         	1091.3059   	0           	                	;
 1000108         	1091.3344   	0           	                	;
 1000109         	1091.0048   	0           	                	;
 1000110         	1090.7886   	0           	                	;
 1000121         	1086.9498   	0.137522901203125	UDA.GUA.003     	;
 1000122         	1095.0000   	0.01925320616898148	UDA.GUA.003     	;
 1000127         	1087.0073   	0.014783711878472222	UDA.GUA.003     	;
 1000128         	1085.5533   	0.011689446602623456	UDA.GUA.003     	;
 1000129         	1084.3748   	0.02165985694058642	UDA.GUA.003     	;
 1000142         	1084.0063   	0.13339721417496145	UDA.GUA.003     	;
 1000145         	1088.7935   	0.010314217590277777	UDA.GUA.003     	;
 1000149         	1096.5085   	0.0         	UDA.GUA.003     	;
 1000150         	1096.4592   	0.015815133640046296	UDA.GUA.003     	;
 1000152         	1096.1715   	0.012720868362268517	UDA.GUA.003     	;
 1000154         	1093.1622   	0.0195970134220679	UDA.GUA.003     	;
 1000155         	1088.8857   	0.010314217590277777	UDA.GUA.003     	;
 1000158         	1090.0000   	0           	                	;
 1000160         	1090.0000   	0           	                	;
 1000162         	1089.9163   	0.04194448486844136	UDA.GUA.003     	;
 1000167         	1090.0000   	0.018565591660879628	UDA.GUA.003     	;
 1000168         	1090.0000   	0.010658024842978394	UDA.GUA.003     	;
 1000169         	1089.9625   	0.08938988578800154	UDA.GUA.003     	;
 1000172         	1088.1766   	0.008251374072145061	UDA.GUA.003     	;
 1000174         	1083.8494   	0.022347471446759262	UDA.GUA.003     	;
 1000177         	1085.0591   	0           	                	;
 1000179         	1086.2549   	0.007907566820987654	UDA.GUA.003     	;
 1000181         	1090.0000   	0.07219952313117285	UDA.GUA.003     	;
 1000183         	1090.0000   	0           	                	;
 1000184         	1110.0000   	0.06292476905864197	UDA.GUA.001     	;
 1000186         	1110.0000   	0           	                	;
 1000187         	1108.6378   	0.05474950378279321	UDA.GUA.001     	;
 1000188         	1108.6378   	0.0         	UDA.GUA.001     	;
 1000190         	1088.7010   	0.12617726186226855	UDA.GUA.003     	;
 1000192         	1057.2141   	0.019312496072530865	UDA.GUA.004     	;
 1000194         	1057.3781   	0.0211966420310571	UDA.GUA.004     	;
 1000196         	1057.5673   	0.0018841459585262346	UDA.GUA.004     	;
 1000198         	1095.2130   	0.011737771500771604	UDA.GUA.002     	;
 1000203         	1105.0000   	0           	                	;
 1000206         	1105.6128   	0           	                	;
 1000207         	1076.1980   	0.05846553345177469	UDA.GUA.001     	;
 1000208         	1076.1857   	0.08571641768769289	UDA.GUA.001     	;
 1000209         	1080.7207   	0           	                	;
 1000210         	1080.7791   	0.0755592699212963	UDA.GUA.001     	;
 1000211         	1106.1865   	0.01898757154513889	UDA.GUA.002     	;
 1000213         	1110.0000   	0           	                	;
 1000214         	1099.4899   	0.006214114322916666	UDA.GUA.002     	;
 1000215         	1099.2994   	0.001726142867669753	UDA.GUA.002     	;
 1000216         	1104.8420   	0.14913874376929015	UDA.GUA.002     	;
 1000217         	1103.8928   	0           	                	;
 1000220         	1105.0000   	0.006904571469907407	UDA.GUA.002     	;
 1000221         	1105.0000   	0.0031070571624228394	UDA.GUA.002     	;
 1000222         	1102.5922   	0.005523657175925926	UDA.GUA.002     	;
 1000225         	1089.6984   	0           	                	;
 1000227         	1105.2164   	0.12733594998070988	UDA.GUA.001     	;
 1000229         	1066.2444   	0.1973642891589506	UDA.GUA.004     	;
 1000230         	1070.0000   	0.011775912239583332	UDA.GUA.004     	;
 1000234         	1078.4872   	0.09750455336226851	UDA.GUA.004     	;
 1000236         	1077.4048   	0.10315699123842592	UDA.GUA.004     	;
 1000237         	1078.1912   	0.06830029100115742	UDA.GUA.004     	;
 1000239         	1078.3745   	0.04616157598379629	UDA.GUA.004     	;
 1000240         	1075.7402   	0           	                	;
 1000241         	1075.8182   	0           	                	;
 1000243         	1058.3848   	0.4536081395044368	UDA.GUA.004     	;
 1000244         	1059.2268   	0.04239328406635802	UDA.GUA.004     	;
 1000245         	1057.7578   	0.011775912241512344	UDA.GUA.004     	;
 1000246         	1065.8782   	0.04091306311728395	UDA.GUA.003     	;
 1000247         	1059.0562   	0.169573136263696	UDA.GUA.004     	;
 1000248         	1107.1707   	0           	                	;
 1000249         	1106.0898   	0.030034885898919752	UDA.GUA.002     	;
 1000250         	1077.3633   	0.01585505991898148	UDA.GUA.001     	;
 1000251         	1101.5200   	0.04626062885802469	UDA.GUA.002     	;
 1000252         	1090.0000   	0.015471326385030865	UDA.GUA.003     	;
 1000254         	1090.0000   	0.012720868360339508	UDA.GUA.003     	;
 1000263         	1081.9235   	0.013408482868441356	UDA.GUA.003     	;
 1000267         	1081.0992   	0.0030942652777777775	UDA.GUA.003     	;
 1000268         	1087.0649   	0.015127519133873456	UDA.GUA.003     	;
 1000269         	1087.0322   	0           	                	;
 1000270         	1077.5280   	0           	                	;
 1000271         	1077.4756   	0.15368184209239968	UDA.GUA.003     	;
 1000273         	1077.8983   	0.04916443718171297	UDA.GUA.003     	;
 1000274         	1072.7662   	0.07301065588831018	UDA.GUA.004     	;
 1000275         	1072.6970   	0.07301065588831018	UDA.GUA.004     	;
 1000277         	1072.8081   	0           	                	;
 1000280         	1097.5593   	0.0013752290119598766	UDA.GUA.003     	;
 1000282         	1085.1621   	0.0013752290119598766	UDA.GUA.003     	;
 1000287         	1080.3724   	0.004469494288194445	UDA.GUA.003     	;
 1000288         	1081.2476   	0.004469494288194445	UDA.GUA.003     	;
 1000295         	1084.9617   	0.005844723302083334	UDA.GUA.003     	;
 1000303         	1091.3369   	0.02544173672260803	UDA.GUA.003     	;
 1000371         	1090.0000   	0.9244977033179013	UDA.GUA.003     	;
 1000372         	1089.9916   	0           	                	;
 1000373         	1099.1312   	0.04228829212133488	UDA.GUA.003     	;
 1000375         	1082.5494   	0.013064675615354937	UDA.GUA.003     	;
 1000376         	1088.9229   	6.876145061728394E-4	UDA.GUA.003     	;
 1000377         	1089.4668   	6.876145061728394E-4	UDA.GUA.003     	;
 1000378         	1090.0000   	0.47411020196759257	UDA.GUA.003     	;
 1000379         	1089.8187   	1.0245456140046296	UDA.GUA.003     	;
 1000380         	1103.9071   	0.0         	UDA.GUA.002     	;
 1000381         	1090.0000   	0.06704241433815587	UDA.GUA.003     	;
 1000383         	1062.9879   	0.08054723971701389	UDA.GUA.004     	;
 1000390         	1085.0000   	0           	                	;
 1000391         	1085.0000   	0           	                	;
 1000392         	1073.0063   	0           	                	;
 1000393         	1076.2047   	0           	                	;
 1000395         	1099.6654   	0           	                	;
 1000396         	1100.0000   	0           	                	;
 1000398         	1100.0000   	0           	                	;
 1000399         	1070.0000   	0           	                	;
 1000400         	1063.8755   	0.00659451085455247	UDA.GUA.004     	;
 1000401         	1063.9293   	0           	                	;
 1000402         	1063.9525   	0           	                	;
 1000406         	1057.8431   	0.06264785311921296	UDA.GUA.004     	;
 1000408         	1068.0002   	0           	                	;
 1000409         	1070.6985   	0.0461615759849537	UDA.GUA.004     	;
 1000413         	1064.5861   	0.21337952979938268	UDA.GUA.004     	;
 1000415         	1064.3759   	0.20207465405092595	UDA.GUA.004     	;
 1000416         	1064.2404   	0.021667678524305553	UDA.GUA.004     	;
 1000418         	1064.1243   	0.05558230577739197	UDA.GUA.004     	;
 1000420         	1062.0146   	0.06170578013888888	UDA.GUA.004     	;
 1000421         	1061.0930   	0.13565850900829476	UDA.GUA.004     	;
 1000423         	1061.0074   	0.17428350115740743	UDA.GUA.004     	;
 1000424         	1066.3990   	0.08243138569444444	UDA.GUA.004     	;
 1000425         	1065.0000   	0.07536583835069445	UDA.GUA.004     	;
 1000426         	1065.4886   	0.14225301986709105	UDA.GUA.004     	;
 1000427         	1067.7405   	0.14931856721084105	UDA.GUA.004     	;
 1000431         	1065.0000   	0           	                	;
 1000433         	1062.0540   	0.08101827621334876	UDA.GUA.004     	;
 1000435         	1062.9027   	0.17852282956770837	UDA.GUA.004     	;
 1000436         	1062.1561   	0.020725605542052467	UDA.GUA.004     	;
 1000441         	1064.9006   	0.03155944480709876	UDA.GUA.004     	;
 1000453         	1064.4265   	0.02920426236496914	UDA.GUA.004     	;
 1000459         	1072.4534   	0.03391462725501543	UDA.GUA.004     	;
 1000464         	1072.5439   	0           	                	;
 1000466         	1072.7391   	0.0588795612038966	UDA.GUA.004     	;
 1000468         	1070.1632   	0.025907006930941355	UDA.GUA.004     	;
 1000473         	1072.0582   	0.2750853099375	UDA.GUA.004     	;
 1000475         	1073.1779   	0.07395272887114197	UDA.GUA.004     	;
 1000480         	1064.6355   	0.02873322586612654	UDA.GUA.004     	;
 1000481         	1064.7490   	0           	                	;
 1000482         	1064.6127   	0.17239935520081023	UDA.GUA.004     	;
 1000490         	1058.9536   	0.0         	UDA.GUA.004     	;
 1000491         	1058.8909   	0.0730106558912037	UDA.GUA.004     	;
 1000492         	1068.0789   	0.008007620322916667	UDA.GUA.004     	;
 1000493         	1068.3119   	0.10457010069714506	UDA.GUA.004     	;
 1000499         	1066.5115   	0.061705780145447524	UDA.GUA.004     	;
 1000500         	1069.3212   	0.09232315196701388	UDA.GUA.004     	;
 1000503         	1065.0000   	0.025907006929012343	UDA.GUA.004     	;
 1000505         	1065.0000   	0.07536583833912036	UDA.GUA.004     	;
 1000511         	1067.6777   	0.04145121109124228	UDA.GUA.004     	;
 1000512         	1066.2734   	0.02920426236496914	UDA.GUA.004     	;
 1000513         	1090.3873   	0           	                	;
 1000518         	1099.9968   	0.28020291119675933	UDA.GUA.003     	;
 1000519         	1071.4429   	0.014602131178626543	UDA.GUA.004     	;
 1000526         	1073.0413   	0.012246948728780864	UDA.GUA.004     	;
 1000527         	1100.0000   	0           	                	;
 1000531         	1077.1096   	0.02496493395061728	UDA.GUA.004     	;
 1000532         	1099.8977   	0           	                	;
 1000534         	1070.0823   	0.01931249607330247	UDA.GUA.004     	;
 1000535         	1070.2438   	0.01931249607330247	UDA.GUA.004     	;
 1000536         	1104.1898   	0.06248637180748457	UDA.GUA.002     	;
 1000537         	1104.0939   	0.036939457366898146	UDA.GUA.002     	;
 1000538         	1068.6012   	0.2171478217092979	UDA.GUA.004     	;
 1000539         	1068.9592   	0.202074654041088	UDA.GUA.004     	;
 1000540         	1092.9075   	0.004833200028935186	UDA.GUA.002     	;
 1000541         	1093.0643   	0           	                	;
 1000544         	1098.6431   	0.006214114322916666	UDA.GUA.002     	;
 1000545         	1098.5181   	0           	                	;
 1000548         	1067.3976   	0           	                	;
 1000549         	1101.8068   	0.09321171486304011	UDA.GUA.002     	;
 1000550         	1101.7611   	0.09321171486304011	UDA.GUA.002     	;
 1000551         	1067.4871   	0           	                	;
 1000552         	1068.1490   	0           	                	;
 1000553         	1101.6379   	0           	                	;
 1000556         	1068.5518   	0           	                	;
 1000557         	1101.5920   	0           	                	;
 1000559         	1069.7531   	0.015073167668209875	UDA.GUA.004     	;
 1000560         	1069.9868   	0           	                	;
 1000561         	1100.0000   	0.004142742881944444	UDA.GUA.002     	;
 1000562         	1100.0000   	0           	                	;
 1000563         	1070.8278   	0.20772709192399694	UDA.GUA.004     	;
 1000564         	1072.9205   	0.193595997242284	UDA.GUA.004     	;
 1000566         	1102.8407   	0.010702085779320988	UDA.GUA.002     	;
 1000568         	1074.3257   	0.25435970439969136	UDA.GUA.004     	;
 1000575         	1058.7341   	0.02732011640046296	UDA.GUA.004     	;
 1000577         	1058.5039   	0.016957313625964504	UDA.GUA.004     	;
 1000579         	1071.0120   	0           	                	;
 1000581         	1057.9974   	0.008478656813271604	UDA.GUA.004     	;
 1000582         	1057.7262   	0.16580484434799386	UDA.GUA.004     	;
 1000583         	1057.3337   	0.018370423096064813	UDA.GUA.004     	;
 1000586         	1060.0000   	0.28497707622974544	UDA.GUA.004     	;
 1000587         	1059.9053   	0.06924236397550154	UDA.GUA.004     	;
 1000591         	1058.0117   	0.07772102078491512	UDA.GUA.004     	;
 1000593         	1057.4388   	0.07065547344328704	UDA.GUA.004     	;
 1000594         	1058.7122   	0.13094814411651234	UDA.GUA.004     	;
 1000595         	1059.2450   	0.16580484434876547	UDA.GUA.004     	;
 1000596         	1058.5740   	0.032972554272183645	UDA.GUA.004     	;
 1000597         	1058.0675   	0.01789938660493827	UDA.GUA.004     	;
 1000598         	1053.8794   	0.19500910670408952	UDA.GUA.004     	;
 1000599         	1055.0000   	0.19265392426890432	UDA.GUA.004     	;
 1000603         	1052.1180   	0.05228505035088735	UDA.GUA.004     	;
 1000606         	1053.2335   	0.10975150208584106	UDA.GUA.004     	;
 1000610         	1055.0000   	0.08525760462635029	UDA.GUA.004     	;
 1000613         	1054.5023   	0.18087801201466053	UDA.GUA.004     	;
 1000615         	1054.3049   	0.03674084619020061	UDA.GUA.004     	;
 1000622         	1055.1178   	0.1497896036898148	UDA.GUA.004     	;
 1000624         	1055.7496   	0.12812192516743828	UDA.GUA.004     	;
 1000625         	1055.9183   	0.09467833441415892	UDA.GUA.004     	;
 1000626         	1057.2679   	0.18888563234567907	UDA.GUA.004     	;
 1000629         	1056.8827   	0.28497707622453705	UDA.GUA.004     	;
 1000633         	1059.2784   	0.18134904851292444	UDA.GUA.004     	;
 1000634         	1055.0000   	0.1262377792204861	UDA.GUA.004     	;
 1000636         	1055.0000   	0.09185211547415124	UDA.GUA.004     	;
 1000637         	1055.0000   	0.07395272887094906	UDA.GUA.004     	;
 1000642         	1055.5585   	0.03909602863753858	UDA.GUA.004     	;
 1000643         	1055.0000   	0.0701844369521605	UDA.GUA.004     	;
 1000646         	1056.4764   	0.12388259676871143	UDA.GUA.004     	;
 1000648         	1055.7714   	0.1417819833757716	UDA.GUA.004     	;
 1000657         	1058.3986   	0.20914020139544756	UDA.GUA.004     	;
 1000658         	1066.1073   	0.11964326836439045	UDA.GUA.004     	;
 1000659         	1064.9885   	0.11964326836439043	UDA.GUA.004     	;
 1000662         	1074.1320   	0.016486277137345677	UDA.GUA.004     	;
 1000664         	1074.1772   	0.042393284065586415	UDA.GUA.004     	;
 1000665         	1073.9956   	0.03344359076195987	UDA.GUA.004     	;
 1000668         	1052.5112   	0.07630791131925155	UDA.GUA.004     	;
 1000670         	1051.1509   	0.09562040739178243	UDA.GUA.004     	;
 1000671         	1053.8647   	0.09656248037403549	UDA.GUA.004     	;
 1000679         	1053.3419   	0.11351979400231484	UDA.GUA.004     	;
 1000684         	1055.0000   	0.0730106558910108	UDA.GUA.004     	;
 1000687         	1055.0247   	0.04898779492091049	UDA.GUA.004     	;
 1000692         	1055.0000   	0.18841459586033954	UDA.GUA.004     	;
 1000694         	1055.0000   	0.004239328406635802	UDA.GUA.004     	;
 1000699         	1055.9316   	0.17663868360879634	UDA.GUA.004     	;
 1000703         	1056.4982   	0.12812192517785495	UDA.GUA.004     	;
 1000714         	1057.4301   	0.09985973579726085	UDA.GUA.004     	;
 1000722         	1056.5802   	0.008949693302469136	UDA.GUA.004     	;
 1000730         	1056.5177   	0           	                	;
 1000731         	1050.3947   	0.0927941884567901	UDA.GUA.004     	;
 1000735         	1105.3136   	0           	                	;
 1000736         	1071.2314   	0.07112650993634259	UDA.GUA.004     	;
 1000737         	1070.5577   	0.05040090438850308	UDA.GUA.004     	;
 1000739         	1096.4626   	0           	                	;
 1000740         	1062.7312   	0.09232315196952161	UDA.GUA.004     	;
 1000743         	1062.2227   	0.09985973580439815	UDA.GUA.004     	;
 1000746         	1062.8033   	0.010362802771990741	UDA.GUA.004     	;
 1000749         	1062.7322   	0.09043900601658951	UDA.GUA.004     	;
 1000754         	1060.3657   	0.1851173404207176	UDA.GUA.004     	;
 1000765         	1063.6165   	0.10692528314429012	UDA.GUA.004     	;
 1000767         	1060.2094   	0.08243138568094135	UDA.GUA.004     	;
 1000771         	1059.5247   	0.13942680092804782	UDA.GUA.004     	;
 1000772         	1106.1995   	0.0497947975636574	UDA.GUA.001     	;
 1000773         	1105.6707   	0.012634500873842592	UDA.GUA.001     	;
 1000778         	1110.0000   	0.09413941826774691	UDA.GUA.001     	;
 1000783         	1061.5441   	0.11351979399864971	UDA.GUA.004     	;
 1000786         	1061.9794   	0.07018443695408952	UDA.GUA.004     	;
 1000787         	1058.7559   	0.05040090438869598	UDA.GUA.004     	;
 1000791         	1060.4873   	0.07960516674768518	UDA.GUA.004     	;
 1000798         	1059.8077   	0.04945883141203703	UDA.GUA.004     	;
 1000807         	1062.3787   	0.14460820231442903	UDA.GUA.004     	;
 1000823         	1059.0146   	0.11069357506172839	UDA.GUA.004     	;
 1000826         	1059.7007   	0.08384449515432098	UDA.GUA.004     	;
 1000850         	1060.8149   	0.11728808591898149	UDA.GUA.004     	;
 1000863         	1062.0516   	0.2595411057880016	UDA.GUA.004     	;
 1000871         	1062.7284   	0.13801369145196757	UDA.GUA.004     	;
 1000875         	1063.6617   	0.1855883769052855	UDA.GUA.004     	;
 1000882         	1064.1187   	0           	                	;
 1000885         	1062.3529   	0.01083383926099537	UDA.GUA.004     	;
 1000886         	1054.7640   	0.09703351686130401	UDA.GUA.004     	;
 1000890         	1070.0000   	0           	                	;
 1000894         	1058.9932   	0.1691020997779707	UDA.GUA.004     	;
 1000895         	1070.0000   	0.0927941884548611	UDA.GUA.004     	;
 1000898         	1070.0000   	0.01742835011574074	UDA.GUA.004     	;
 1000910         	1072.8549   	0           	                	;
 1000916         	1072.7886   	0.006594510854552469	UDA.GUA.004     	;
 1000921         	1060.3510   	0.07112650993614969	UDA.GUA.004     	;
 1000927         	1060.7140   	0.1073963196352238	UDA.GUA.004     	;
 1000950         	1054.5671   	0.03579877321354167	UDA.GUA.004     	;
 1000953         	1065.8685   	0.14083991039564042	UDA.GUA.004     	;
 1000956         	1064.2664   	0.12435363326176699	UDA.GUA.004     	;
 1000957         	1063.4886   	0.11775912240721453	UDA.GUA.004     	;
 1000960         	1058.6530   	0.11446186698090278	UDA.GUA.004     	;
 1000961         	1063.3094   	0.025435970439814812	UDA.GUA.004     	;
 1000970         	1058.0048   	0.16580484434606482	UDA.GUA.004     	;
 1000977         	1075.5813   	0.11116461154436727	UDA.GUA.004     	;
 1000978         	1076.0231   	0.2468231205684799	UDA.GUA.004     	;
 1000981         	1075.0480   	0.2100822743786651	UDA.GUA.004     	;
 1000982         	1060.4905   	0.07253961940335647	UDA.GUA.004     	;
 1000989         	1058.4141   	0.0037682919174382716	UDA.GUA.004     	;
 1000990         	1071.2965   	0.048516758429783945	UDA.GUA.004     	;
 1000996         	1074.0254   	0.21526367575617283	UDA.GUA.004     	;
 1000999         	1072.9803   	0.08054723972222222	UDA.GUA.004     	;
 1001000         	1075.0472   	0.1554420415756173	UDA.GUA.004     	;
 1001011         	1076.2369   	0.38813406743479956	UDA.GUA.004     	;
 1001012         	1076.8291   	0.21667678522145065	UDA.GUA.004     	;
 1001016         	1062.2498   	0.12859296166840278	UDA.GUA.004     	;
 1001023         	1075.4146   	0.14036887390952935	UDA.GUA.004     	;
 1001026         	1073.6545   	0.20678501894425155	UDA.GUA.004     	;
 1001030         	1074.8052   	0.1931249607455633	UDA.GUA.004     	;
 1001034         	1076.2891   	0.14083991039853394	UDA.GUA.004     	;
 1001035         	1075.5879   	0.22138715012654325	UDA.GUA.004     	;
 1001043         	1059.6906   	0.1507316766851852	UDA.GUA.004     	;
 1001045         	1078.0913   	0.36081395104301706	UDA.GUA.004     	;
 1001052         	1078.9640   	0.041451211087384254	UDA.GUA.004     	;
 1001056         	1079.5161   	0.008007620324074073	UDA.GUA.004     	;
 1001057         	1079.5017   	0           	                	;
 1001061         	1077.9387   	0.0023551824479166664	UDA.GUA.004     	;
 1001067         	1077.9523   	0.0023551824479166664	UDA.GUA.004     	;
 1001069         	1081.3158   	0.13958574472685184	UDA.GUA.003     	;
 1001071         	1081.4172   	0.020972242432484568	UDA.GUA.003     	;
 1001072         	1085.0002   	0.12617726184915123	UDA.GUA.003     	;
 1001073         	1083.7205   	0.12617726184915123	UDA.GUA.003     	;
 1001074         	1085.0929   	0.0037818797839506172	UDA.GUA.003     	;
 1001078         	1085.1174   	0.045038750144675926	UDA.GUA.003     	;
 1001081         	1083.6663   	0.04125687036072531	UDA.GUA.003     	;
 1001084         	1080.0000   	0.13958574472685184	UDA.GUA.003     	;
 1001086         	1080.6805   	0.010658024843749999	UDA.GUA.003     	;
 1001087         	1065.5747   	0.005181401385030864	UDA.GUA.004     	;
 1001104         	1068.2813   	0.017877977156635805	UDA.GUA.003     	;
 1001106         	1065.0992   	0.27696945589351857	UDA.GUA.004     	;
 1001108         	1076.0529   	0.01203325385609568	UDA.GUA.003     	;
 1001110         	1075.0000   	0.024754122215084877	UDA.GUA.003     	;
 1001112         	1059.0145   	0.08243138568113426	UDA.GUA.004     	;
 1001114         	1057.4709   	0.3914313228636189	UDA.GUA.004     	;
 1001116         	1065.6018   	0.4159252203545525	UDA.GUA.004     	;
 1001119         	1062.3518   	0           	                	;
 1001122         	1062.6652   	0.011304875752314814	UDA.GUA.004     	;
 1001126         	1068.9221   	0.0777004391876929	UDA.GUA.003     	;
 1001128         	1069.3677   	0.020628435181327162	UDA.GUA.003     	;
 1001130         	1076.7041   	0.00997041033757716	UDA.GUA.003     	;
 1001132         	1057.1345   	0.024022860976080248	UDA.GUA.004     	;
 1001133         	1061.1091   	0.5713672619174386	UDA.GUA.004     	;
 1001134         	1060.0000   	0.1615655159448303	UDA.GUA.004     	;
 1001136         	1057.9034   	0.10928046559876545	UDA.GUA.004     	;
 1001138         	1057.1036   	0.008007620324074073	UDA.GUA.004     	;
 1001140         	1067.1215   	0.05464023280555556	UDA.GUA.004     	;
 1001142         	1063.6626   	0.23174995290200623	UDA.GUA.004     	;
 1001144         	1058.9115   	0.15073167668749998	UDA.GUA.004     	;
 1001146         	1070.6160   	0.04616157598379629	UDA.GUA.004     	;
 1001148         	1071.8549   	0.059134847529706804	UDA.GUA.003     	;
 1001150         	1060.4402   	0.01366005819830247	UDA.GUA.004     	;
 1001151         	1075.3582   	0.06257292004726081	UDA.GUA.003     	;
 1001152         	1075.2706   	0.030598845517746914	UDA.GUA.003     	;
 1001154         	1071.2589   	0.0998597358076775	UDA.GUA.004     	;
 1001156         	1066.7321   	0.115403939955054	UDA.GUA.004     	;
 1001158         	1073.3905   	0.00997041033912037	UDA.GUA.003     	;
 1001160         	1071.9519   	0.051227280708526224	UDA.GUA.003     	;
 1001162         	1074.3680   	0.004125687037037037	UDA.GUA.003     	;
 1001164         	1071.2513   	0.028733225868055552	UDA.GUA.004     	;
 1001166         	1066.5110   	0.03956706512692901	UDA.GUA.004     	;
 1001168         	1076.9982   	0.022691278695987655	UDA.GUA.003     	;
 1001169         	1063.4541   	0.4013230891745756	UDA.GUA.004     	;
 1001171         	1067.9087   	0.3659953524824461	UDA.GUA.004     	;
 1001176         	1070.7786   	0.28968744114371153	UDA.GUA.004     	;
 1001177         	1064.2501   	0.047574685444058636	UDA.GUA.004     	;
 1001179         	1057.5098   	0.1356585090030864	UDA.GUA.004     	;
 1001180         	1058.1344   	0.16203655243788584	UDA.GUA.004     	;
 1001183         	1056.5331   	0.3914313228636189	UDA.GUA.004     	;
 1001185         	1062.0911   	0           	                	;
 1001186         	1056.3298   	0           	                	;
 1001187         	1061.4542   	0.11728808592129632	UDA.GUA.004     	;
 1001188         	1062.0212   	0.05416919631018518	UDA.GUA.004     	;
 1001189         	1060.5695   	0.001413109468942901	UDA.GUA.004     	;
 1001191         	1058.9615   	0.0023551824481095676	UDA.GUA.004     	;
 1001192         	1069.9810   	0.001413109468942901	UDA.GUA.004     	;
 1001195         	1055.5876   	0.0         	UDA.GUA.004     	;
 1001196         	1055.7427   	9.420729791666668E-4	UDA.GUA.004     	;
 1001197         	1064.8613   	0.7984068499274697	UDA.GUA.004     	;
 1001201         	1063.9594   	0.07819205727391976	UDA.GUA.004     	;
 1001203         	1059.0438   	0.08243138568113426	UDA.GUA.004     	;
 1001204         	1060.0000   	0           	                	;
 1001206         	1059.9510   	0.511545627740355	UDA.GUA.004     	;
 1001208         	1056.9811   	0.3019343898524306	UDA.GUA.004     	;
 1001213         	1064.6478   	0.1855883769014275	UDA.GUA.004     	;
 1001214         	1061.9910   	0.2147926392606096	UDA.GUA.004     	;
 1001215         	1066.1517   	0.18935666883217592	UDA.GUA.004     	;
 1001219         	1058.8269   	0.3528063307297454	UDA.GUA.004     	;
 1001221         	1057.8922   	0.26283836121952164	UDA.GUA.004     	;
 1001222         	1056.3824   	0.22703958800945223	UDA.GUA.004     	;
 1001224         	1056.4576   	0.20490087299189813	UDA.GUA.004     	;
 1001225         	1064.6685   	0.16957313627256945	UDA.GUA.004     	;
 1001227         	1064.9266   	0.32124688592418976	UDA.GUA.004     	;
 1001229         	1066.1306   	0.1907697782937886	UDA.GUA.004     	;
 1001230         	1071.5743   	0.14884753073784726	UDA.GUA.004     	;
 1001231         	1070.9705   	0.048987794930169755	UDA.GUA.004     	;
 1001232         	1066.0461   	0.20537190947627318	UDA.GUA.004     	;
 1001234         	1068.0667   	0.1431950928422068	UDA.GUA.004     	;
 1001235         	1068.1354   	0.1431950928422068	UDA.GUA.004     	;