[TITLE]


[JUNCTIONS]
;ID              	Elev        	Demand      	Pattern         
 J10             	940.000000  	0           	                	;New Junction
 J100            	945.820435  	0.022909    	                	;New Junction
 J1000           	918.945374  	0.076365    	                	;New Junction
 J1002           	924.396179  	0.122184    	                	;New Junction
 J1004           	928.519287  	0.045819    	                	;New Junction
 J1006           	928.585938  	0.068728    	                	;New Junction
 J1008           	954.054138  	0           	                	;New Junction
 J1010           	948.263306  	0           	                	;New Junction
 J1012           	948.263306  	0.007636    	                	;New Junction
 J1014           	931.116272  	0.106911    	                	;New Junction
 J1016           	930.877625  	0.038182    	                	;New Junction
 J1018           	930.190735  	0.030546    	                	;New Junction
 J102            	934.969238  	0.076365    	                	;New Junction
 J1020           	929.549011  	0.038182    	                	;New Junction
 J1022           	927.701294  	0.015273    	                	;New Junction
 J1024           	928.670532  	0.007636    	                	;New Junction
 J1026           	928.670532  	0           	                	;New Junction
 J1028           	928.670532  	0.015273    	                	;New Junction
 J1030           	954.593689  	0           	                	;New Junction
 J1032           	954.175171  	0           	                	;New Junction
 J1034           	929.825439  	0.045819    	                	;New Junction
 J1036           	931.114502  	0.053455    	                	;New Junction
 J1038           	939.207336  	0.045819    	                	;New Junction
 J104            	934.347717  	0.015273    	                	;New Junction
 J1040           	929.829529  	0.030546    	                	;New Junction
 J1042           	930.227234  	0.030546    	                	;New Junction
 J1044           	931.237366  	0.022909    	                	;New Junction
 J1046           	931.489807  	0.030546    	                	;New Junction
 J1048           	931.828613  	0.038182    	                	;New Junction
 J1050           	932.054993  	0.038182    	                	;New Junction
 J1052           	932.880981  	0.030546    	                	;New Junction
 J1054           	933.610840  	0.084001    	                	;New Junction
 J1056           	933.867981  	0.030546    	                	;New Junction
 J1058           	934.612305  	0.038182    	                	;New Junction
 J106            	913.102905  	0           	                	;New Junction
 J1060           	937.666382  	0.045819    	                	;New Junction
 J1062           	954.054138  	0           	                	;RAP.VAM.001.FIT.002.000.000
 J1064           	950.895813  	0           	                	;New Junction
 J108            	913.102905  	0.030546    	                	;New Junction
 J1088           	939.276245  	0           	                	;New Junction
 J1098           	934.460449  	0           	                	;New Junction
 J110            	911.876770  	0           	                	;New Junction
 J1100           	934.077881  	0.038182    	                	;New Junction
 J1110           	957.196350  	0           	                	;New Junction
 J1112           	955.000000  	0           	                	;New Junction
 J112            	911.876770  	0.007636    	                	;New Junction
 J114            	918.156433  	0.038182    	                	;New Junction
 J116            	916.638611  	0.015273    	                	;New Junction
 J118            	940.000000  	0           	                	;New Junction
 J12             	940.000000  	0           	                	;New Junction
 J120            	940.000000  	0           	                	;New Junction
 J122            	939.956787  	0.053455    	                	;New Junction
 J124            	939.756714  	0.053455    	                	;New Junction
 J126            	939.276245  	0           	                	;New Junction
 J128            	938.631897  	0.038182    	                	;New Junction
 J130            	938.748901  	0.084001    	                	;New Junction
 J132            	930.564636  	0.022909    	                	;New Junction
 J134            	929.470642  	0.022909    	                	;New Junction
 J136            	913.708618  	0.152730    	                	;New Junction
 J14             	947.350586  	0.068728    	                	;New Junction
 J146            	937.885803  	0.038182    	                	;New Junction
 J148            	936.216675  	0           	                	;New Junction
 J150            	933.208313  	0.068728    	                	;New Junction
 J152            	932.074524  	0.084001    	                	;New Junction
 J154            	934.501709  	0.022909    	                	;New Junction
 J156            	938.539490  	0           	                	;New Junction
 J158            	938.301758  	0.007636    	                	;New Junction
 J16             	951.120239  	0.022909    	                	;New Junction
 J160            	938.038635  	0.038182    	                	;New Junction
 J162            	937.169128  	0.015273    	                	;New Junction
 J164            	936.828308  	0           	                	;New Junction
 J166            	935.917664  	0.038182    	                	;New Junction
 J168            	934.748657  	0.022909    	                	;New Junction
 J170            	934.460449  	0.015273    	                	;New Junction
 J172            	915.118103  	0.007636    	                	;New Junction
 J174            	925.639832  	0.076365    	                	;New Junction
 J176            	923.496460  	0.076365    	                	;New Junction
 J178            	935.439819  	0.015273    	                	;New Junction
 J18             	962.321472  	0           	                	;New Junction
 J180            	933.635437  	0.007636    	                	;New Junction
 J182            	936.813171  	0.022909    	                	;New Junction
 J184            	935.429626  	0.038182    	                	;New Junction
 J186            	939.285767  	0.045819    	                	;New Junction
 J188            	924.000000  	0           	                	;New Junction
 J190            	923.742493  	0           	                	;New Junction
 J192            	934.920349  	0           	                	;New Junction
 J194            	935.000000  	0           	                	;New Junction
 J196            	926.354492  	0.007636    	                	;New Junction
 J198            	926.354492  	0.007636    	                	;New Junction
 J20             	936.192383  	0.084001    	                	;New Junction
 J200            	927.957764  	0.030546    	                	;New Junction
 J202            	942.524780  	0.053455    	                	;New Junction
 J204            	944.929199  	0           	                	;New Junction
 J206            	943.892822  	0.007636    	                	;New Junction
 J208            	942.027954  	0.045819    	                	;New Junction
 J210            	908.537659  	0           	                	;New Junction
 J212            	908.565613  	0.007636    	                	;New Junction
 J214            	912.281921  	0.007636    	                	;New Junction
 J216            	908.537659  	0           	                	;New Junction
 J218            	909.544617  	0.015273    	                	;New Junction
 J22             	933.000000  	0.045819    	                	;New Junction
 J220            	910.653809  	0           	                	;New Junction
 J222            	911.876770  	0           	                	;New Junction
 J224            	925.039429  	0.114547    	                	;New Junction
 J226            	925.039429  	0           	                	;New Junction
 J228            	925.039429  	0           	                	;New Junction
 J230            	925.039429  	0.007636    	                	;New Junction
 J232            	925.340332  	0.015273    	                	;New Junction
 J234            	925.266663  	0.015273    	                	;New Junction
 J236            	925.266663  	0           	                	;New Junction
 J238            	925.266663  	0.007636    	                	;New Junction
 J24             	924.209167  	0.198548    	                	;New Junction
 J240            	925.161682  	0.007636    	                	;New Junction
 J242            	925.161682  	0           	                	;New Junction
 J244            	925.161682  	0.007636    	                	;New Junction
 J246            	925.161682  	0.007636    	                	;New Junction
 J248            	925.014587  	0.007636    	                	;New Junction
 J250            	934.920349  	0           	                	;New Junction
 J252            	934.920349  	0           	                	;New Junction
 J254            	933.954224  	0.022909    	                	;New Junction
 J256            	935.000000  	0.015273    	                	;New Junction
 J258            	933.954224  	0.068728    	                	;New Junction
 J26             	922.000000  	0.129820    	                	;New Junction
 J260            	934.000000  	0           	                	;New Junction
 J262            	940.681213  	0.099274    	                	;New Junction
 J264            	938.527832  	0.045819    	                	;New Junction
 J266            	950.175537  	0.084001    	                	;New Junction
 J268            	937.643250  	0.030546    	                	;New Junction
 J270            	936.191772  	0.198548    	                	;New Junction
 J272            	933.773987  	0.244367    	                	;New Junction
 J274            	933.000000  	0           	                	;New Junction
 J276            	933.172180  	0.015273    	                	;New Junction
 J278            	946.459961  	0.114547    	                	;New Junction
 J28             	921.781006  	0.175639    	                	;New Junction
 J280            	924.000000  	0           	                	;New Junction
 J282            	919.775146  	0           	                	;New Junction
 J284            	919.189758  	0           	                	;New Junction
 J286            	929.277588  	0.030546    	                	;New Junction
 J288            	928.810547  	0.106911    	                	;New Junction
 J290            	924.584106  	0           	                	;New Junction
 J292            	925.014587  	0.022909    	                	;New Junction
 J294            	927.000000  	0.045819    	                	;New Junction
 J296            	927.104614  	0.099274    	                	;New Junction
 J298            	933.635437  	0.007636    	                	;New Junction
 J30             	918.574890  	0           	                	;New Junction
 J300            	934.347717  	0.007636    	                	;New Junction
 J302            	934.347717  	0           	                	;New Junction
 J304            	933.635437  	0           	                	;New Junction
 J306            	939.397766  	0.007636    	                	;New Junction
 J308            	939.397766  	0           	                	;New Junction
 J310            	930.998718  	0.007636    	                	;New Junction
 J312            	930.998718  	0.038182    	                	;New Junction
 J314            	927.511353  	0.068728    	                	;New Junction
 J316            	925.983459  	0.053455    	                	;New Junction
 J318            	926.396667  	0.038182    	                	;New Junction
 J32             	918.298584  	0.274913    	                	;New Junction
 J320            	925.288025  	0.022909    	                	;New Junction
 J322            	912.281921  	0           	                	;New Junction
 J324            	912.281921  	0.068728    	                	;New Junction
 J326            	913.313232  	0           	                	;New Junction
 J328            	913.313232  	0.015273    	                	;New Junction
 J330            	913.424500  	0.007636    	                	;New Junction
 J332            	912.964111  	0           	                	;New Junction
 J334            	920.276855  	0.007636    	                	;New Junction
 J336            	919.381592  	0.022909    	                	;New Junction
 J338            	922.770813  	0           	                	;New Junction
 J34             	918.945374  	0.015273    	                	;New Junction
 J340            	922.770813  	0.007636    	                	;New Junction
 J342            	924.612427  	0.053455    	                	;New Junction
 J344            	925.581116  	0.015273    	                	;New Junction
 J346            	930.059814  	0.007636    	                	;New Junction
 J348            	929.995972  	0.015273    	                	;New Junction
 J350            	928.204834  	0.007636    	                	;New Junction
 J352            	928.204834  	0.007636    	                	;New Junction
 J354            	932.762085  	0           	                	;New Junction
 J356            	932.762085  	0.015273    	                	;New Junction
 J358            	938.163513  	0.091638    	                	;New Junction
 J36             	918.574890  	0.183276    	                	;New Junction
 J360            	937.328552  	0.022909    	                	;New Junction
 J362            	937.818298  	0.007636    	                	;New Junction
 J364            	941.959106  	0.015273    	                	;New Junction
 J366            	942.812439  	0           	                	;New Junction
 J368            	942.502014  	0.007636    	                	;New Junction
 J370            	942.934204  	0           	                	;New Junction
 J372            	942.353943  	0.015273    	                	;New Junction
 J374            	942.353943  	0.076365    	                	;New Junction
 J376            	939.572754  	0.022909    	                	;New Junction
 J378            	938.176575  	0.007636    	                	;New Junction
 J38             	917.670227  	0.145093    	                	;New Junction
 J380            	941.445190  	0.007636    	                	;New Junction
 J382            	941.445190  	0.030546    	                	;New Junction
 J384            	937.667114  	0.015273    	                	;New Junction
 J386            	933.600464  	0.030546    	                	;New Junction
 J388            	935.069397  	0.015273    	                	;New Junction
 J390            	936.216675  	0.007636    	                	;New Junction
 J392            	935.645569  	0.038182    	                	;New Junction
 J394            	936.216675  	0.007636    	                	;New Junction
 J396            	943.503967  	0.007636    	                	;New Junction
 J398            	942.205811  	0.030546    	                	;New Junction
 J40             	940.036621  	0.007636    	                	;New Junction
 J400            	945.385010  	0.045819    	                	;New Junction
 J402            	942.697266  	0.122184    	                	;New Junction
 J404            	938.908386  	0.007636    	                	;New Junction
 J406            	939.793945  	0.030546    	                	;New Junction
 J408            	942.879272  	0.084001    	                	;New Junction
 J410            	943.969055  	0.038182    	                	;New Junction
 J412            	945.181458  	0.007636    	                	;New Junction
 J414            	946.000000  	0           	                	;New Junction
 J416            	946.000000  	0           	                	;New Junction
 J418            	922.495422  	0.007636    	                	;New Junction
 J42             	937.882446  	0.068728    	                	;New Junction
 J420            	924.420410  	0.022909    	                	;New Junction
 J422            	928.204834  	0           	                	;New Junction
 J424            	928.615173  	0           	                	;New Junction
 J426            	929.452148  	0.068728    	                	;New Junction
 J428            	930.362061  	0           	                	;New Junction
 J430            	932.041870  	0           	                	;New Junction
 J432            	934.185242  	0.007636    	                	;New Junction
 J434            	936.444397  	0.045819    	                	;New Junction
 J436            	938.914795  	0.030546    	                	;New Junction
 J438            	940.810791  	0.038182    	                	;New Junction
 J44             	936.249146  	0.007636    	                	;New Junction
 J440            	913.424500  	0           	                	;New Junction
 J442            	913.424500  	0           	                	;New Junction
 J444            	914.642517  	0.007636    	                	;New Junction
 J446            	916.621094  	0.053455    	                	;New Junction
 J448            	923.292725  	0.015273    	                	;New Junction
 J450            	920.276855  	0.030546    	                	;New Junction
 J452            	924.650391  	0           	                	;New Junction
 J454            	925.791870  	0.007636    	                	;New Junction
 J456            	932.434082  	0.045819    	                	;New Junction
 J458            	931.297424  	0.030546    	                	;New Junction
 J46             	935.906799  	0.015273    	                	;New Junction
 J460            	937.274719  	0.030546    	                	;New Junction
 J462            	924.472778  	0.030546    	                	;New Junction
 J464            	927.303528  	0.038182    	                	;New Junction
 J466            	923.496460  	0.022909    	                	;New Junction
 J468            	923.496460  	0           	                	;New Junction
 J470            	930.635498  	0           	                	;New Junction
 J472            	928.915161  	0           	                	;New Junction
 J474            	934.022583  	0.030546    	                	;New Junction
 J476            	930.797852  	0.015273    	                	;New Junction
 J478            	930.611755  	0.099274    	                	;New Junction
 J48             	945.041626  	0.022909    	                	;New Junction
 J480            	934.202454  	0           	                	;New Junction
 J482            	934.501709  	0           	                	;New Junction
 J484            	934.501709  	0           	                	;New Junction
 J486            	934.202454  	0.022909    	                	;New Junction
 J488            	931.941101  	0.038182    	                	;New Junction
 J490            	929.458923  	0.084001    	                	;New Junction
 J492            	928.067261  	0.022909    	                	;New Junction
 J494            	928.067261  	0.038182    	                	;New Junction
 J496            	947.225220  	0.022909    	                	;New Junction
 J498            	946.802368  	0.038182    	                	;New Junction
 J50             	946.225098  	0.068728    	                	;New Junction
 J500            	947.000000  	0.022909    	                	;New Junction
 J502            	946.000000  	0           	                	;New Junction
 J504            	945.364685  	0.030546    	                	;New Junction
 J506            	930.807678  	0           	                	;New Junction
 J508            	932.000000  	0           	                	;New Junction
 J510            	960.075073  	0           	                	;New Junction
 J512            	962.761230  	0           	                	;New Junction
 J514            	948.199097  	0.152730    	                	;New Junction
 J516            	946.459961  	0.160366    	                	;New Junction
 J518            	941.722534  	0.183276    	                	;New Junction
 J52             	944.150391  	0           	                	;New Junction
 J520            	947.476013  	0.221458    	                	;New Junction
 J522            	942.761536  	0.030546    	                	;New Junction
 J524            	934.163147  	0.061092    	                	;New Junction
 J526            	934.365662  	0.206185    	                	;New Junction
 J528            	934.851257  	0.030546    	                	;New Junction
 J530            	930.150452  	0           	                	;New Junction
 J532            	930.032166  	0           	                	;New Junction
 J534            	930.414124  	0           	                	;New Junction
 J536            	929.083557  	0           	                	;New Junction
 J538            	930.414124  	0           	                	;New Junction
 J54             	946.714233  	0.038182    	                	;New Junction
 J540            	931.632324  	0.267277    	                	;New Junction
 J542            	932.129028  	0.015273    	                	;New Junction
 J544            	932.056946  	0           	                	;New Junction
 J546            	931.545593  	0.015273    	                	;New Junction
 J548            	930.460632  	0.007636    	                	;New Junction
 J550            	929.814026  	0.053455    	                	;New Junction
 J552            	931.049500  	0.068728    	                	;New Junction
 J554            	923.752991  	0.206185    	                	;New Junction
 J556            	923.184387  	0.091638    	                	;New Junction
 J558            	923.040527  	0.038182    	                	;New Junction
 J56             	952.505127  	0.007636    	                	;New Junction
 J560            	926.349304  	0.488735    	                	;New Junction
 J562            	930.699524  	0.450552    	                	;New Junction
 J564            	929.000000  	0.053455    	                	;New Junction
 J566            	933.950562  	0.053455    	                	;New Junction
 J568            	932.000000  	0.084001    	                	;New Junction
 J570            	938.876953  	0.152730    	                	;New Junction
 J572            	934.423218  	0.122184    	                	;New Junction
 J574            	937.330322  	0.129820    	                	;New Junction
 J576            	934.084229  	0.076365    	                	;New Junction
 J578            	934.460449  	0.007636    	                	;New Junction
 J58             	941.578674  	0.030546    	                	;New Junction
 J580            	933.284485  	0.038182    	                	;New Junction
 J582            	932.541565  	0.007636    	                	;New Junction
 J584            	940.557495  	0.221458    	                	;New Junction
 J586            	934.746399  	0.084001    	                	;New Junction
 J588            	935.096069  	0.053455    	                	;New Junction
 J590            	935.000000  	0.114547    	                	;New Junction
 J592            	934.341736  	0.168003    	                	;New Junction
 J594            	934.000000  	0.053455    	                	;New Junction
 J596            	937.953003  	0.175639    	                	;New Junction
 J598            	939.364990  	0.030546    	                	;New Junction
 J60             	941.578674  	0.007636    	                	;New Junction
 J600            	939.380005  	0.030546    	                	;New Junction
 J602            	938.539490  	0.022909    	                	;New Junction
 J604            	934.746399  	0.649101    	                	;New Junction
 J606            	939.000000  	0.397097    	                	;New Junction
 J608            	948.263306  	0.007636    	                	;New Junction
 J610            	948.519470  	0.053455    	                	;New Junction
 J612            	947.947083  	0           	                	;New Junction
 J614            	947.947083  	0.068728    	                	;New Junction
 J616            	950.985657  	0           	                	;New Junction
 J618            	949.438843  	0.068728    	                	;New Junction
 J62             	940.036621  	0.007636    	                	;New Junction
 J620            	949.743896  	0           	                	;New Junction
 J622            	939.658508  	0.030546    	                	;New Junction
 J624            	939.670532  	0.282550    	                	;New Junction
 J626            	933.601074  	0.122184    	                	;New Junction
 J628            	946.783447  	0.022909    	                	;New Junction
 J630            	944.621216  	0.053455    	                	;New Junction
 J632            	943.749146  	0.076365    	                	;New Junction
 J634            	943.234924  	0.068728    	                	;New Junction
 J636            	942.034058  	0.084001    	                	;New Junction
 J638            	941.279663  	0.068728    	                	;New Junction
 J64             	937.866638  	0.022909    	                	;New Junction
 J640            	940.945740  	0.061092    	                	;New Junction
 J642            	940.402283  	0.022909    	                	;New Junction
 J644            	940.000000  	0           	                	;New Junction
 J646            	953.514771  	0.007636    	                	;New Junction
 J648            	950.895813  	0           	                	;New Junction
 J650            	946.903809  	0.129820    	                	;New Junction
 J652            	947.350586  	0.084001    	                	;New Junction
 J654            	939.459839  	0.038182    	                	;New Junction
 J656            	939.769897  	0.068728    	                	;New Junction
 J658            	932.748047  	0           	                	;New Junction
 J66             	934.061646  	0.030546    	                	;New Junction
 J660            	932.772156  	0           	                	;New Junction
 J662            	932.772156  	0.015273    	                	;New Junction
 J664            	932.898987  	0.038182    	                	;New Junction
 J666            	932.670654  	0           	                	;New Junction
 J668            	716.983154  	0.007636    	                	;New Junction
 J670            	931.554993  	0.030546    	                	;New Junction
 J672            	932.772156  	0           	                	;New Junction
 J674            	929.613770  	0.221458    	                	;New Junction
 J676            	931.597961  	0.152730    	                	;New Junction
 J678            	933.843201  	0.106911    	                	;New Junction
 J68             	931.350342  	0.022909    	                	;New Junction
 J680            	933.435669  	0           	                	;New Junction
 J682            	933.000000  	0.030546    	                	;New Junction
 J684            	932.790344  	0.099274    	                	;New Junction
 J686            	960.919617  	0           	                	;New Junction
 J688            	958.935486  	0           	                	;New Junction
 J690            	957.265442  	0           	                	;New Junction
 J692            	948.989990  	0           	                	;New Junction
 J694            	949.489929  	0.007636    	                	;New Junction
 J696            	953.887085  	0           	                	;New Junction
 J698            	955.763367  	0           	                	;New Junction
 J70             	935.175171  	0.106911    	                	;New Junction
 J700            	949.167603  	0.053455    	                	;New Junction
 J702            	936.921082  	0.007636    	                	;New Junction
 J704            	947.307922  	0.061092    	                	;New Junction
 J706            	947.125549  	0.053455    	                	;New Junction
 J708            	938.307007  	0.038182    	                	;New Junction
 J710            	934.674011  	0.022909    	                	;New Junction
 J712            	932.325867  	0.504008    	                	;New Junction
 J714            	920.528320  	0.053455    	                	;New Junction
 J716            	919.775146  	0.068728    	                	;New Junction
 J718            	923.271606  	0.213821    	                	;New Junction
 J72             	937.815247  	0.129820    	                	;New Junction
 J720            	920.230591  	0.015273    	                	;New Junction
 J722            	920.313110  	0.022909    	                	;New Junction
 J724            	919.599060  	0           	                	;New Junction
 J726            	920.270813  	0           	                	;New Junction
 J728            	922.286987  	0.404733    	                	;New Junction
 J730            	923.796875  	0.045819    	                	;New Junction
 J732            	923.764832  	0.129820    	                	;New Junction
 J734            	923.955078  	0.030546    	                	;New Junction
 J736            	925.090820  	0           	                	;New Junction
 J738            	928.213013  	0           	                	;New Junction
 J74             	934.826538  	0.030546    	                	;New Junction
 J740            	926.817383  	0.030546    	                	;New Junction
 J742            	925.789856  	0.022909    	                	;New Junction
 J744            	924.484192  	0.099274    	                	;New Junction
 J746            	923.934326  	0.137457    	                	;New Junction
 J748            	933.422607  	0.175639    	                	;New Junction
 J750            	931.240479  	0.106911    	                	;New Junction
 J752            	931.083191  	0.137457    	                	;New Junction
 J754            	931.317993  	0.519281    	                	;New Junction
 J756            	932.847229  	0.221458    	                	;New Junction
 J758            	932.431702  	0.236731    	                	;New Junction
 J76             	935.137573  	0.038182    	                	;New Junction